Program Version,EnergyPlus, Version 8.5.0-c87e61b44b, YMD=2018.01.11 23:29
! <Version>, Version ID
 Version, 8.5
! <Timesteps per Hour>, #TimeSteps, Minutes per TimeStep {minutes}
 Timesteps per Hour,  4, 15
! <System Convergence Limits>, Minimum System TimeStep {minutes}, Max HVAC Iterations, Minimum Plant Iterations, Maximum Plant Iterations
 System Convergence Limits, 1, 20, 2, 8
! <Simulation Control>, Do Zone Sizing, Do System Sizing, Do Plant Sizing, Do Design Days, Do Weather Simulation, Do HVAC Sizing Simulation
 Simulation Control, Yes, No, No, Yes, Yes, No
! <Output Reporting Tolerances>, Tolerance for Time Heating Setpoint Not Met, Tolerance for Zone Cooling Setpoint Not Met Time
 Output Reporting Tolerances, 0.200, 0.200, 
! <Site:GroundTemperature:BuildingSurface>, Months From Jan to Dec {C}
 Site:GroundTemperature:BuildingSurface,  18.00,  18.00,  18.00,  18.00,  18.00,  18.00,  18.00,  18.00,  18.00,  18.00,  18.00,  18.00
! <Site:GroundTemperature:FCfactorMethod>, Months From Jan to Dec {C}
 Site:GroundTemperature:FCfactorMethod,  27.55,  28.03,  28.32,  28.42,  28.26,  27.88,  27.40,  26.92,  26.59,  26.51,  26.68,  27.05
! <Site:GroundTemperature:Shallow>, Months From Jan to Dec {C}
 Site:GroundTemperature:Shallow,  13.00,  13.00,  13.00,  13.00,  13.00,  13.00,  13.00,  13.00,  13.00,  13.00,  13.00,  13.00
! <Site:GroundTemperature:Deep>, Months From Jan to Dec {C}
 Site:GroundTemperature:Deep,  16.00,  16.00,  16.00,  16.00,  16.00,  16.00,  16.00,  16.00,  16.00,  16.00,  16.00,  16.00
! <Site:GroundReflectance>, Months From Jan to Dec {dimensionless}
 Site:GroundReflectance,  0.20,  0.20,  0.20,  0.20,  0.20,  0.20,  0.20,  0.20,  0.20,  0.20,  0.20,  0.20
! <Site:GroundReflectance:SnowModifier>, Normal, Daylighting {dimensionless}
 Site:GroundReflectance:SnowModifier,   1.000,   1.000
! <Site:GroundReflectance:Snow>, Months From Jan to Dec {dimensionless}
 Site:GroundReflectance:Snow,  0.20,  0.20,  0.20,  0.20,  0.20,  0.20,  0.20,  0.20,  0.20,  0.20,  0.20,  0.20
! <Site:GroundReflectance:Snow:Daylighting>, Months From Jan to Dec {dimensionless}
 Site:GroundReflectance:Snow:Daylighting,  0.20,  0.20,  0.20,  0.20,  0.20,  0.20,  0.20,  0.20,  0.20,  0.20,  0.20,  0.20
! <Environment:Weather Station>,Wind Sensor Height Above Ground {m},Wind Speed Profile Exponent {},Wind Speed Profile Boundary Layer Thickness {m},Air Temperature Sensor Height Above Ground {m},Wind Speed Modifier Coefficient [Internal],Temperature Modifier Coefficient [Internal]
Environment:Weather Station,10.000,0.140,270.000,1.500,1.586,9.750E-003
! <Site:Location>, Location Name, Latitude {N+/S- Deg}, Longitude {E+/W- Deg},  Time Zone Number {GMT+/-}, Elevation {m},  Standard Pressure at Elevation {Pa}, Standard RhoAir at Elevation
Site:Location,SINGAPORE - SGP IWEC Data WMO#=486980,1.37,103.98,8.00,16.00,101133,1.2020
! <Building Information>, Building Name,North Axis {deg},Terrain,  Loads Convergence Tolerance Value,Temperature Convergence Tolerance Value,  Solar Distribution,Maximum Number of Warmup Days,Minimum Number of Warmup Days
 Building Information,Building 1,0.000,Suburbs,4.00000E-002,0.40000,FullExterior,25,6
! <Inside Convection Algorithm>, Algorithm {Simple | TARP | CeilingDiffuser | AdaptiveConvectionAlgorithm}
Inside Convection Algorithm,TARP
! <Outside Convection Algorithm>, Algorithm {SimpleCombined | TARP | MoWitt | DOE-2 | AdaptiveConvectionAlgorithm}
Outside Convection Algorithm,DOE-2
! <Sky Radiance Distribution>, Value {Anisotropic}
Sky Radiance Distribution,Anisotropic
! <Zone Air Solution Algorithm>, Value {ThirdOrderBackwardDifference | AnalyticalSolution | EulerMethod}
 Zone Air Solution Algorithm, ThirdOrderBackwardDifference
! <Zone Air Carbon Dioxide Balance Simulation>, Simulation {Yes/No}, Carbon Dioxide Concentration
 Zone Air Carbon Dioxide Balance Simulation, No,N/A
! <Zone Air Generic Contaminant Balance Simulation>, Simulation {Yes/No}, Generic Contaminant Concentration
 Zone Air Generic Contaminant Balance Simulation, No,N/A
! <Zone Air Mass Flow Balance Simulation>, Enforce Mass Balance, Adjust Zone Mixing, Adjust Zone Infiltration {AddInfiltration | AdjustInfiltration | None}, Infiltration Zones {MixingSourceZonesOnly | AllZones}
 Zone Air Mass Flow Balance Simulation, No,N/A,N/A,N/A
! <Environment:Site Atmospheric Variation>,Wind Speed Profile Exponent {},Wind Speed Profile Boundary Layer Thickness {m},Air Temperature Gradient Coefficient {K/m}
Environment:Site Atmospheric Variation,0.220,370.000,6.500000E-003
! <SurfaceGeometry>,Starting Corner,Vertex Input Direction,Coordinate System,Daylight Reference Point Coordinate System,Rectangular (Simple) Surface Coordinate System
 Surface Geometry,UpperLeftCorner,Counterclockwise,RelativeCoordinateSystem,RelativeCoordinateSystem,RelativeToZoneOrigin
! <Surface Heat Transfer Algorithm>, Value {CTF - ConductionTransferFunction | EMPD - MoisturePenetrationDepthConductionTransferFunction | CondFD - ConductionFiniteDifference | HAMT - CombinedHeatAndMoistureFiniteElement} - Description,Inside Surface Max Temperature Limit{C}, Surface Convection Coefficient Lower Limit {W/m2-K}, Surface Convection Coefficient Upper Limit {W/m2-K}
Surface Heat Transfer Algorithm, CTF - ConductionTransferFunction,200,0.10,1000.0
! <Shading Summary>, Number of Fixed Detached Shades, Number of Building Detached Shades, Number of Attached Shades
 Shading Summary,0,0,78
! <Zone Summary>, Number of Zones, Number of Zone Surfaces, Number of SubSurfaces
 Zone Summary,15,270,48
! <Zone Information>,Zone Name,North Axis {deg},Origin X-Coordinate {m},Origin Y-Coordinate {m},Origin Z-Coordinate {m},Centroid X-Coordinate {m},Centroid Y-Coordinate {m},Centroid Z-Coordinate {m},Type,Zone Multiplier,Zone List Multiplier,Minimum X {m},Maximum X {m},Minimum Y {m},Maximum Y {m},Minimum Z {m},Maximum Z {m},Ceiling Height {m},Volume {m3},Zone Inside Convection Algorithm {Simple-Detailed-CeilingDiffuser-TrombeWall},Zone Outside Convection Algorithm {Simple-Detailed-Tarp-MoWitt-DOE-2-BLAST}, Floor Area {m2},Exterior Gross Wall Area {m2},Exterior Net Wall Area {m2},Exterior Window Area {m2}, Number of Surfaces, Number of SubSurfaces, Number of Shading SubSurfaces,  Part of Total Building Area
 Zone Information, THERMAL ZONE 1,0.0,4.81,1.89,0.00,18.81,15.89,1.52,1,1,1,4.81,32.81,1.89,29.89,0.00,3.05,3.05,1493.52,TARP,DOE-2,490.00,298.70,179.22,119.48,26,8,12,Yes
 Zone Information, THERMAL ZONE 10,0.0,13.81,20.89,3.05,18.81,15.89,4.57,1,1,1,13.81,23.81,10.89,20.89,3.05,6.10,3.05,304.80,TARP,DOE-2,100.00,121.92,73.15,48.77,6,4,6,Yes
 Zone Information, THERMAL ZONE 11,0.0,4.81,1.89,6.10,18.81,15.89,7.62,1,1,1,4.81,32.81,1.89,29.89,6.10,9.14,3.05,1493.52,TARP,DOE-2,490.00,298.70,179.22,119.48,26,8,12,Yes
 Zone Information, THERMAL ZONE 12,0.0,11.81,15.89,6.10,18.81,15.89,7.62,1,1,1,4.81,32.81,11.89,19.89,6.10,9.14,3.05,170.69,TARP,DOE-2,56.00,24.38,14.63,9.75,14,2,4,Yes
 Zone Information, THERMAL ZONE 13,0.0,4.81,8.89,6.10,18.81,15.89,7.62,1,1,1,4.81,32.81,8.89,22.89,6.10,9.14,3.05,64.01,TARP,DOE-2,21.00,18.29,10.97,7.32,12,2,4,Yes
 Zone Information, THERMAL ZONE 14,0.0,18.81,22.89,6.10,18.81,15.89,7.62,1,1,1,8.31,29.31,8.89,22.89,6.10,9.14,3.05,661.42,TARP,DOE-2,217.00,0.00,0.00,0.00,14,0,0,Yes
 Zone Information, THERMAL ZONE 15,0.0,13.81,20.89,6.10,18.81,15.89,7.62,1,1,1,13.81,23.81,10.89,20.89,6.10,9.14,3.05,304.80,TARP,DOE-2,100.00,121.92,73.15,48.77,6,4,6,Yes
 Zone Information, THERMAL ZONE 2,0.0,11.81,15.89,0.00,18.81,15.89,1.52,1,1,1,4.81,32.81,11.89,19.89,0.00,3.05,3.05,170.69,TARP,DOE-2,56.00,24.38,14.63,9.75,14,2,4,Yes
 Zone Information, THERMAL ZONE 3,0.0,4.81,8.89,0.00,18.81,15.89,1.52,1,1,1,4.81,32.81,8.89,22.89,0.00,3.05,3.05,64.01,TARP,DOE-2,21.00,18.29,10.97,7.32,12,2,4,Yes
 Zone Information, THERMAL ZONE 4,0.0,18.81,22.89,0.00,18.81,15.89,1.52,1,1,1,8.31,29.31,8.89,22.89,0.00,3.05,3.05,661.42,TARP,DOE-2,217.00,0.00,0.00,0.00,14,0,0,Yes
 Zone Information, THERMAL ZONE 5,0.0,13.81,20.89,0.00,18.81,15.89,1.52,1,1,1,13.81,23.81,10.89,20.89,0.00,3.05,3.05,304.80,TARP,DOE-2,100.00,121.92,73.15,48.77,6,4,6,Yes
 Zone Information, THERMAL ZONE 6,0.0,4.81,1.89,3.05,18.81,15.89,4.57,1,1,1,4.81,32.81,1.89,29.89,3.05,6.10,3.05,1493.52,TARP,DOE-2,490.00,298.70,179.22,119.48,26,8,12,Yes
 Zone Information, THERMAL ZONE 7,0.0,11.81,15.89,3.05,18.81,15.89,4.57,1,1,1,4.81,32.81,11.89,19.89,3.05,6.10,3.05,170.69,TARP,DOE-2,56.00,24.38,14.63,9.75,14,2,4,Yes
 Zone Information, THERMAL ZONE 8,0.0,4.81,8.89,3.05,18.81,15.89,4.57,1,1,1,4.81,32.81,8.89,22.89,3.05,6.10,3.05,64.01,TARP,DOE-2,21.00,18.29,10.97,7.32,12,2,4,Yes
 Zone Information, THERMAL ZONE 9,0.0,18.81,22.89,3.05,18.81,15.89,4.57,1,1,1,8.31,29.31,8.89,22.89,3.05,6.10,3.05,661.42,TARP,DOE-2,217.00,0.00,0.00,0.00,14,0,0,Yes
! <Zone Internal Gains/Equipment Information - Nominal>,Zone Name, Floor Area {m2},# Occupants,Area per Occupant {m2/person},Occupant per Area {person/m2},Interior Lighting {W/m2},Electric Load {W/m2},Gas Load {W/m2},Other Load {W/m2},Hot Water Eq {W/m2},Steam Equipment {W/m2},Sum Loads per Area {W/m2},Outdoor Controlled Baseboard Heat
 Zone Internal Gains, THERMAL ZONE 1,490.00,27.7,17.696,5.651E-002,10.656,7.642,0.000,0.000,0.000,0.000,18.299,No
 Zone Internal Gains, THERMAL ZONE 10,100.00,53.8,1.858,0.538,11.625,48.007,0.000,0.000,0.000,0.000,59.632,No
 Zone Internal Gains, THERMAL ZONE 11,490.00,27.7,17.696,5.651E-002,10.656,7.642,0.000,0.000,0.000,0.000,18.299,No
 Zone Internal Gains, THERMAL ZONE 12,56.00,6.0,9.290,0.108,8.719,0.753,0.000,0.000,0.000,0.000,9.472,No
 Zone Internal Gains, THERMAL ZONE 13,21.00,0.0,N/A,0.000,5.813,0.000,0.000,0.000,0.000,0.000,5.813,No
 Zone Internal Gains, THERMAL ZONE 14,217.00,2.3,92.903,1.076E-002,4.844,1.722,0.000,0.000,0.000,0.000,6.566,No
 Zone Internal Gains, THERMAL ZONE 15,100.00,53.8,1.858,0.538,11.625,48.007,0.000,0.000,0.000,0.000,59.632,No
 Zone Internal Gains, THERMAL ZONE 2,56.00,6.0,9.290,0.108,8.719,0.753,0.000,0.000,0.000,0.000,9.472,No
 Zone Internal Gains, THERMAL ZONE 3,21.00,0.0,N/A,0.000,5.813,0.000,0.000,0.000,0.000,0.000,5.813,No
 Zone Internal Gains, THERMAL ZONE 4,217.00,2.3,92.903,1.076E-002,4.844,1.722,0.000,0.000,0.000,0.000,6.566,No
 Zone Internal Gains, THERMAL ZONE 5,100.00,53.8,1.858,0.538,11.625,48.007,0.000,0.000,0.000,0.000,59.632,No
 Zone Internal Gains, THERMAL ZONE 6,490.00,27.7,17.696,5.651E-002,10.656,7.642,0.000,0.000,0.000,0.000,18.299,No
 Zone Internal Gains, THERMAL ZONE 7,56.00,6.0,9.290,0.108,8.719,0.753,0.000,0.000,0.000,0.000,9.472,No
 Zone Internal Gains, THERMAL ZONE 8,21.00,0.0,N/A,0.000,5.813,0.000,0.000,0.000,0.000,0.000,5.813,No
 Zone Internal Gains, THERMAL ZONE 9,217.00,2.3,92.903,1.076E-002,4.844,1.722,0.000,0.000,0.000,0.000,6.566,No
! <People Internal Gains - Nominal>,Name,Schedule Name,Zone Name,Zone Floor Area {m2},# Zone Occupants,Number of People {},People/Floor Area {person/m2},Floor Area per person {m2/person},Fraction Radiant,Fraction Convected,Sensible Fraction Calculation,Activity level,ASHRAE 55 Warnings,Carbon Dioxide Generation Rate,Nominal Minimum Number of People,Nominal Maximum Number of People
 People Internal Gains, THERMAL ZONE 10 189.1-2009 - OFFICE - BREAKROOM - CZ1-3 PEOPLE,OFFICE MISC OCC,THERMAL ZONE 10,100.00,53.8,53.8,0.538,1.858,0.300,0.700,AutoCalculate,OFFICE ACTIVITY,No,3.8200E-008,0,54
 People Internal Gains, THERMAL ZONE 15 189.1-2009 - OFFICE - BREAKROOM - CZ1-3 PEOPLE,OFFICE MISC OCC,THERMAL ZONE 15,100.00,53.8,53.8,0.538,1.858,0.300,0.700,AutoCalculate,OFFICE ACTIVITY,No,3.8200E-008,0,54
 People Internal Gains, THERMAL ZONE 5 189.1-2009 - OFFICE - BREAKROOM - CZ1-3 PEOPLE,OFFICE MISC OCC,THERMAL ZONE 5,100.00,53.8,53.8,0.538,1.858,0.300,0.700,AutoCalculate,OFFICE ACTIVITY,No,3.8200E-008,0,54
 People Internal Gains, THERMAL ZONE 14 189.1-2009 - OFFICE - CORRIDOR - CZ1-3 PEOPLE,OFFICE WORK OCC,THERMAL ZONE 14,217.00,2.3,2.3,1.076E-002,92.903,0.300,0.700,AutoCalculate,OFFICE ACTIVITY,No,3.8200E-008,0,2
 People Internal Gains, THERMAL ZONE 4 189.1-2009 - OFFICE - CORRIDOR - CZ1-3 PEOPLE,OFFICE WORK OCC,THERMAL ZONE 4,217.00,2.3,2.3,1.076E-002,92.903,0.300,0.700,AutoCalculate,OFFICE ACTIVITY,No,3.8200E-008,0,2
 People Internal Gains, THERMAL ZONE 9 189.1-2009 - OFFICE - CORRIDOR - CZ1-3 PEOPLE,OFFICE WORK OCC,THERMAL ZONE 9,217.00,2.3,2.3,1.076E-002,92.903,0.300,0.700,AutoCalculate,OFFICE ACTIVITY,No,3.8200E-008,0,2
 People Internal Gains, THERMAL ZONE 1 189.1-2009 - OFFICE - OPENOFFICE - CZ1-3 PEOPLE,OFFICE WORK OCC,THERMAL ZONE 1,490.00,27.7,27.7,5.651E-002,17.696,0.300,0.700,AutoCalculate,OFFICE ACTIVITY,No,3.8200E-008,0,28
 People Internal Gains, THERMAL ZONE 11 189.1-2009 - OFFICE - OPENOFFICE - CZ1-3 PEOPLE,OFFICE WORK OCC,THERMAL ZONE 11,490.00,27.7,27.7,5.651E-002,17.696,0.300,0.700,AutoCalculate,OFFICE ACTIVITY,No,3.8200E-008,0,28
 People Internal Gains, THERMAL ZONE 6 189.1-2009 - OFFICE - OPENOFFICE - CZ1-3 PEOPLE,OFFICE WORK OCC,THERMAL ZONE 6,490.00,27.7,27.7,5.651E-002,17.696,0.300,0.700,AutoCalculate,OFFICE ACTIVITY,No,3.8200E-008,0,28
 People Internal Gains, THERMAL ZONE 12 189.1-2009 - OFFICE - RESTROOM - CZ1-3 PEOPLE,OFFICE MISC OCC,THERMAL ZONE 12,56.00,6.0,6.0,0.108,9.290,0.300,0.700,AutoCalculate,OFFICE ACTIVITY,No,3.8200E-008,0,6
 People Internal Gains, THERMAL ZONE 2 189.1-2009 - OFFICE - RESTROOM - CZ1-3 PEOPLE,OFFICE MISC OCC,THERMAL ZONE 2,56.00,6.0,6.0,0.108,9.290,0.300,0.700,AutoCalculate,OFFICE ACTIVITY,No,3.8200E-008,0,6
 People Internal Gains, THERMAL ZONE 7 189.1-2009 - OFFICE - RESTROOM - CZ1-3 PEOPLE,OFFICE MISC OCC,THERMAL ZONE 7,56.00,6.0,6.0,0.108,9.290,0.300,0.700,AutoCalculate,OFFICE ACTIVITY,No,3.8200E-008,0,6
! <Lights Internal Gains - Nominal>,Name,Schedule Name,Zone Name,Zone Floor Area {m2},# Zone Occupants,Lighting Level {W},Lights/Floor Area {W/m2},Lights per person {W/person},Fraction Return Air,Fraction Radiant,Fraction Short Wave,Fraction Convected,Fraction Replaceable,End-Use Category,Nominal Minimum Lighting Level {W},Nominal Maximum Lighting Level {W}
 Lights Internal Gains, THERMAL ZONE 10 189.1-2009 - OFFICE - BREAKROOM - CZ1-3 LIGHTS,OFFICE BLDG LIGHT,THERMAL ZONE 10,100.00,53.8,1162.502,11.625,21.600,0.000,0.000,0.000,1.000,1.000,General,0.000,1162.502
 Lights Internal Gains, THERMAL ZONE 15 189.1-2009 - OFFICE - BREAKROOM - CZ1-3 LIGHTS,OFFICE BLDG LIGHT,THERMAL ZONE 15,100.00,53.8,1162.502,11.625,21.600,0.000,0.000,0.000,1.000,1.000,General,0.000,1162.502
 Lights Internal Gains, THERMAL ZONE 5 189.1-2009 - OFFICE - BREAKROOM - CZ1-3 LIGHTS,OFFICE BLDG LIGHT,THERMAL ZONE 5,100.00,53.8,1162.502,11.625,21.600,0.000,0.000,0.000,1.000,1.000,General,0.000,1162.502
 Lights Internal Gains, THERMAL ZONE 14 189.1-2009 - OFFICE - CORRIDOR - CZ1-3 LIGHTS,OFFICE BLDG LIGHT,THERMAL ZONE 14,217.00,2.3,1051.096,4.844,450.000,0.000,0.000,0.000,1.000,1.000,General,0.000,1051.096
 Lights Internal Gains, THERMAL ZONE 4 189.1-2009 - OFFICE - CORRIDOR - CZ1-3 LIGHTS,OFFICE BLDG LIGHT,THERMAL ZONE 4,217.00,2.3,1051.096,4.844,450.000,0.000,0.000,0.000,1.000,1.000,General,0.000,1051.096
 Lights Internal Gains, THERMAL ZONE 9 189.1-2009 - OFFICE - CORRIDOR - CZ1-3 LIGHTS,OFFICE BLDG LIGHT,THERMAL ZONE 9,217.00,2.3,1051.096,4.844,450.000,0.000,0.000,0.000,1.000,1.000,General,0.000,1051.096
 Lights Internal Gains, THERMAL ZONE 1 189.1-2009 - OFFICE - OPENOFFICE - CZ1-3 LIGHTS,OFFICE BLDG LIGHT,THERMAL ZONE 1,490.00,27.7,5221.573,10.656,188.571,0.000,0.000,0.000,1.000,1.000,General,0.000,5221.573
 Lights Internal Gains, THERMAL ZONE 11 189.1-2009 - OFFICE - OPENOFFICE - CZ1-3 LIGHTS,OFFICE BLDG LIGHT,THERMAL ZONE 11,490.00,27.7,5221.573,10.656,188.571,0.000,0.000,0.000,1.000,1.000,General,0.000,5221.573
 Lights Internal Gains, THERMAL ZONE 6 189.1-2009 - OFFICE - OPENOFFICE - CZ1-3 LIGHTS,OFFICE BLDG LIGHT,THERMAL ZONE 6,490.00,27.7,5221.573,10.656,188.571,0.000,0.000,0.000,1.000,1.000,General,0.000,5221.573
 Lights Internal Gains, THERMAL ZONE 12 189.1-2009 - OFFICE - RESTROOM - CZ1-3 LIGHTS,OFFICE BLDG LIGHT,THERMAL ZONE 12,56.00,6.0,488.251,8.719,81.000,0.000,0.000,0.000,1.000,1.000,General,0.000,488.251
 Lights Internal Gains, THERMAL ZONE 2 189.1-2009 - OFFICE - RESTROOM - CZ1-3 LIGHTS,OFFICE BLDG LIGHT,THERMAL ZONE 2,56.00,6.0,488.251,8.719,81.000,0.000,0.000,0.000,1.000,1.000,General,0.000,488.251
 Lights Internal Gains, THERMAL ZONE 7 189.1-2009 - OFFICE - RESTROOM - CZ1-3 LIGHTS,OFFICE BLDG LIGHT,THERMAL ZONE 7,56.00,6.0,488.251,8.719,81.000,0.000,0.000,0.000,1.000,1.000,General,0.000,488.251
 Lights Internal Gains, THERMAL ZONE 13 189.1-2009 - OFFICE - STAIR - CZ1-3 LIGHTS,OFFICE BLDG LIGHT,THERMAL ZONE 13,21.00,0.0,122.063,5.813,N/A,0.000,0.000,0.000,1.000,1.000,General,0.000,122.063
 Lights Internal Gains, THERMAL ZONE 3 189.1-2009 - OFFICE - STAIR - CZ1-3 LIGHTS,OFFICE BLDG LIGHT,THERMAL ZONE 3,21.00,0.0,122.063,5.813,N/A,0.000,0.000,0.000,1.000,1.000,General,0.000,122.063
 Lights Internal Gains, THERMAL ZONE 8 189.1-2009 - OFFICE - STAIR - CZ1-3 LIGHTS,OFFICE BLDG LIGHT,THERMAL ZONE 8,21.00,0.0,122.063,5.813,N/A,0.000,0.000,0.000,1.000,1.000,General,0.000,122.063
! <ElectricEquipment Internal Gains - Nominal>,Name,Schedule Name,Zone Name,Zone Floor Area {m2},# Zone Occupants,Equipment Level {W},Equipment/Floor Area {W/m2},Equipment per person {W/person},Fraction Latent,Fraction Radiant,Fraction Lost,Fraction Convected,End-Use SubCategory,Nominal Minimum Equipment Level {W},Nominal Maximum Equipment Level {W}
 ElectricEquipment Internal Gains, THERMAL ZONE 10 189.1-2009 - OFFICE - BREAKROOM - CZ1-3 ELECTRIC EQUIPMENT,OFFICE BLDG EQUIP,THERMAL ZONE 10,100.00,53.8,4800.704,48.007,89.200,0.000,0.000,0.000,1.000,General,0.000,4800.704
 ElectricEquipment Internal Gains, THERMAL ZONE 15 189.1-2009 - OFFICE - BREAKROOM - CZ1-3 ELECTRIC EQUIPMENT,OFFICE BLDG EQUIP,THERMAL ZONE 15,100.00,53.8,4800.704,48.007,89.200,0.000,0.000,0.000,1.000,General,0.000,4800.704
 ElectricEquipment Internal Gains, THERMAL ZONE 5 189.1-2009 - OFFICE - BREAKROOM - CZ1-3 ELECTRIC EQUIPMENT,OFFICE BLDG EQUIP,THERMAL ZONE 5,100.00,53.8,4800.704,48.007,89.200,0.000,0.000,0.000,1.000,General,0.000,4800.704
 ElectricEquipment Internal Gains, THERMAL ZONE 14 189.1-2009 - OFFICE - CORRIDOR - CZ1-3 ELECTRIC EQUIPMENT,OFFICE BLDG EQUIP,THERMAL ZONE 14,217.00,2.3,373.723,1.722,160.000,0.000,0.000,0.000,1.000,General,0.000,373.723
 ElectricEquipment Internal Gains, THERMAL ZONE 4 189.1-2009 - OFFICE - CORRIDOR - CZ1-3 ELECTRIC EQUIPMENT,OFFICE BLDG EQUIP,THERMAL ZONE 4,217.00,2.3,373.723,1.722,160.000,0.000,0.000,0.000,1.000,General,0.000,373.723
 ElectricEquipment Internal Gains, THERMAL ZONE 9 189.1-2009 - OFFICE - CORRIDOR - CZ1-3 ELECTRIC EQUIPMENT,OFFICE BLDG EQUIP,THERMAL ZONE 9,217.00,2.3,373.723,1.722,160.000,0.000,0.000,0.000,1.000,General,0.000,373.723
 ElectricEquipment Internal Gains, THERMAL ZONE 1 189.1-2009 - OFFICE - OPENOFFICE - CZ1-3 ELECTRIC EQUIPMENT,OFFICE BLDG EQUIP,THERMAL ZONE 1,490.00,27.7,3744.764,7.642,135.238,0.000,0.000,0.000,1.000,General,0.000,3744.764
 ElectricEquipment Internal Gains, THERMAL ZONE 11 189.1-2009 - OFFICE - OPENOFFICE - CZ1-3 ELECTRIC EQUIPMENT,OFFICE BLDG EQUIP,THERMAL ZONE 11,490.00,27.7,3744.764,7.642,135.238,0.000,0.000,0.000,1.000,General,0.000,3744.764
 ElectricEquipment Internal Gains, THERMAL ZONE 6 189.1-2009 - OFFICE - OPENOFFICE - CZ1-3 ELECTRIC EQUIPMENT,OFFICE BLDG EQUIP,THERMAL ZONE 6,490.00,27.7,3744.764,7.642,135.238,0.000,0.000,0.000,1.000,General,0.000,3744.764
 ElectricEquipment Internal Gains, THERMAL ZONE 12 189.1-2009 - OFFICE - RESTROOM - CZ1-3 ELECTRIC EQUIPMENT,OFFICE BLDG EQUIP,THERMAL ZONE 12,56.00,6.0,42.195,0.753,7.000,0.000,0.000,0.000,1.000,General,0.000,42.195
 ElectricEquipment Internal Gains, THERMAL ZONE 2 189.1-2009 - OFFICE - RESTROOM - CZ1-3 ELECTRIC EQUIPMENT,OFFICE BLDG EQUIP,THERMAL ZONE 2,56.00,6.0,42.195,0.753,7.000,0.000,0.000,0.000,1.000,General,0.000,42.195
 ElectricEquipment Internal Gains, THERMAL ZONE 7 189.1-2009 - OFFICE - RESTROOM - CZ1-3 ELECTRIC EQUIPMENT,OFFICE BLDG EQUIP,THERMAL ZONE 7,56.00,6.0,42.195,0.753,7.000,0.000,0.000,0.000,1.000,General,0.000,42.195
! <Shadowing/Sun Position Calculations> [Annual Simulations], Calculation Method, Value {days}, Allowable Number Figures in Shadow Overlap {}, Polygon Clipping Algorithm, Sky Diffuse Modeling Algorithm
Shadowing/Sun Position Calculations,AverageOverDaysInFrequency,20,15000,SutherlandHodgman,SimpleSkyDiffuseModeling
! <Infiltration Airflow Stats - Nominal>,Name,Schedule Name,Zone Name, Zone Floor Area {m2}, # Zone Occupants,Design Volume Flow Rate {m3/s},Volume Flow Rate/Floor Area {m3/s/m2},Volume Flow Rate/Exterior Surface Area {m3/s/m2},ACH - Air Changes per Hour,Equation A - Constant Term Coefficient {},Equation B - Temperature Term Coefficient {1/C},Equation C - Velocity Term Coefficient {s/m}, Equation D - Velocity Squared Term Coefficient {s2/m2}
 ZoneInfiltration Airflow Stats, THERMAL ZONE 10 189.1-2009 - OFFICE - BREAKROOM - CZ1-3 INFILTRATION,OFFICE INFIL QUARTER ON,THERMAL ZONE 10,100.00,53.8,3.685E-002,3.685E-004,3.023E-004,0.435,1.000,0.000,0.000,0.000
 ZoneInfiltration Airflow Stats, THERMAL ZONE 15 189.1-2009 - OFFICE - BREAKROOM - CZ1-3 INFILTRATION,OFFICE INFIL QUARTER ON,THERMAL ZONE 15,100.00,53.8,6.708E-002,6.708E-004,3.023E-004,0.792,1.000,0.000,0.000,0.000
 ZoneInfiltration Airflow Stats, THERMAL ZONE 5 189.1-2009 - OFFICE - BREAKROOM - CZ1-3 INFILTRATION,OFFICE INFIL QUARTER ON,THERMAL ZONE 5,100.00,53.8,3.685E-002,3.685E-004,3.023E-004,0.435,1.000,0.000,0.000,0.000
 ZoneInfiltration Airflow Stats, THERMAL ZONE 14 189.1-2009 - OFFICE - CORRIDOR - CZ1-3 INFILTRATION,OFFICE INFIL QUARTER ON,THERMAL ZONE 14,217.00,2.3,6.559E-002,3.023E-004,3.023E-004,0.357,1.000,0.000,0.000,0.000
 ZoneInfiltration Airflow Stats, THERMAL ZONE 4 189.1-2009 - OFFICE - CORRIDOR - CZ1-3 INFILTRATION,OFFICE INFIL QUARTER ON,THERMAL ZONE 4,217.00,2.3,0.000,0.000,N/A,0.000,1.000,0.000,0.000,0.000
 ZoneInfiltration Airflow Stats, THERMAL ZONE 9 189.1-2009 - OFFICE - CORRIDOR - CZ1-3 INFILTRATION,OFFICE INFIL QUARTER ON,THERMAL ZONE 9,217.00,2.3,0.000,0.000,N/A,0.000,1.000,0.000,0.000,0.000
 ZoneInfiltration Airflow Stats, THERMAL ZONE 1 189.1-2009 - OFFICE - OPENOFFICE - CZ1-3 INFILTRATION,OFFICE INFIL QUARTER ON,THERMAL ZONE 1,490.00,27.7,9.029E-002,1.843E-004,3.023E-004,0.218,1.000,0.000,0.000,0.000
 ZoneInfiltration Airflow Stats, THERMAL ZONE 11 189.1-2009 - OFFICE - OPENOFFICE - CZ1-3 INFILTRATION,OFFICE INFIL QUARTER ON,THERMAL ZONE 11,490.00,27.7,0.238,4.865E-004,3.023E-004,0.575,1.000,0.000,0.000,0.000
 ZoneInfiltration Airflow Stats, THERMAL ZONE 6 189.1-2009 - OFFICE - OPENOFFICE - CZ1-3 INFILTRATION,OFFICE INFIL QUARTER ON,THERMAL ZONE 6,490.00,27.7,9.029E-002,1.843E-004,3.023E-004,0.218,1.000,0.000,0.000,0.000
 ZoneInfiltration Airflow Stats, THERMAL ZONE 12 189.1-2009 - OFFICE - RESTROOM - CZ1-3 INFILTRATION,OFFICE INFIL QUARTER ON,THERMAL ZONE 12,56.00,6.0,2.430E-002,4.339E-004,3.023E-004,0.512,1.000,0.000,0.000,0.000
 ZoneInfiltration Airflow Stats, THERMAL ZONE 2 189.1-2009 - OFFICE - RESTROOM - CZ1-3 INFILTRATION,OFFICE INFIL QUARTER ON,THERMAL ZONE 2,56.00,6.0,7.370E-003,1.316E-004,3.023E-004,0.155,1.000,0.000,0.000,0.000
 ZoneInfiltration Airflow Stats, THERMAL ZONE 7 189.1-2009 - OFFICE - RESTROOM - CZ1-3 INFILTRATION,OFFICE INFIL QUARTER ON,THERMAL ZONE 7,56.00,6.0,7.370E-003,1.316E-004,3.023E-004,0.155,1.000,0.000,0.000,0.000
 ZoneInfiltration Airflow Stats, THERMAL ZONE 13 189.1-2009 - OFFICE - STAIR - CZ1-3 INFILTRATION,OFFICE INFIL QUARTER ON,THERMAL ZONE 13,21.00,0.0,1.188E-002,5.655E-004,3.023E-004,0.668,1.000,0.000,0.000,0.000
 ZoneInfiltration Airflow Stats, THERMAL ZONE 3 189.1-2009 - OFFICE - STAIR - CZ1-3 INFILTRATION,OFFICE INFIL QUARTER ON,THERMAL ZONE 3,21.00,0.0,5.528E-003,2.632E-004,3.023E-004,0.311,1.000,0.000,0.000,0.000
 ZoneInfiltration Airflow Stats, THERMAL ZONE 8 189.1-2009 - OFFICE - STAIR - CZ1-3 INFILTRATION,OFFICE INFIL QUARTER ON,THERMAL ZONE 8,21.00,0.0,5.528E-003,2.632E-004,3.023E-004,0.311,1.000,0.000,0.000,0.000
! <ZoneVentilation Airflow Stats - Nominal>,Name,Schedule Name,Zone Name, Zone Floor Area {m2}, # Zone Occupants,Design Volume Flow Rate {m3/s},Volume Flow Rate/Floor Area {m3/s/m2},Volume Flow Rate/person Area {m3/s/person},ACH - Air Changes per Hour,Fan Type {Exhaust;Intake;Natural},Fan Pressure Rise {Pa},Fan Efficiency {},Equation A - Constant Term Coefficient {},Equation B - Temperature Term Coefficient {1/C},Equation C - Velocity Term Coefficient {s/m}, Equation D - Velocity Squared Term Coefficient {s2/m2},Minimum Indoor Temperature{C}/Schedule,Maximum Indoor Temperature{C}/Schedule,Delta Temperature{C}/Schedule,Minimum Outdoor Temperature{C}/Schedule,Maximum Outdoor Temperature{C}/Schedule,Maximum WindSpeed{m/s}
 ZoneVentilation Airflow Stats, THERMAL ZONE 1 VENTILATION PER PERSON,OFFICE WORK OCC,THERMAL ZONE 1,490.00,27.7,0.261,5.334E-004,9.439E-003,0.630,Natural,0.000,1.0,1.000,0.000,0.000,0.000,-100.00,100.00,-100.00,-100.00,100.00,40.00
 ZoneVentilation Airflow Stats, THERMAL ZONE 10 VENTILATION PER PERSON,OFFICE MISC OCC,THERMAL ZONE 10,100.00,53.8,0.381,3.810E-003,7.079E-003,4.500,Natural,0.000,1.0,1.000,0.000,0.000,0.000,-100.00,100.00,-100.00,-100.00,100.00,40.00
 ZoneVentilation Airflow Stats, THERMAL ZONE 11 VENTILATION PER PERSON,OFFICE WORK OCC,THERMAL ZONE 11,490.00,27.7,0.261,5.334E-004,9.439E-003,0.630,Natural,0.000,1.0,1.000,0.000,0.000,0.000,-100.00,100.00,-100.00,-100.00,100.00,40.00
 ZoneVentilation Airflow Stats, THERMAL ZONE 12 VENTILATION PER FLOOR AREA,ALWAYS_ON,THERMAL ZONE 12,56.00,6.0,0.273,4.877E-003,4.531E-002,5.760,Natural,0.000,1.0,1.000,0.000,0.000,0.000,-100.00,100.00,-100.00,-100.00,100.00,40.00
 ZoneVentilation Airflow Stats, THERMAL ZONE 13 VENTILATION PER FLOOR AREA,ALWAYS_ON,THERMAL ZONE 13,21.00,0.0,5.334E-003,2.540E-004,N/A,0.300,Natural,0.000,1.0,1.000,0.000,0.000,0.000,-100.00,100.00,-100.00,-100.00,100.00,40.00
 ZoneVentilation Airflow Stats, THERMAL ZONE 14 VENTILATION PER FLOOR AREA,ALWAYS_ON,THERMAL ZONE 14,217.00,2.3,5.512E-002,2.540E-004,2.360E-002,0.300,Natural,0.000,1.0,1.000,0.000,0.000,0.000,-100.00,100.00,-100.00,-100.00,100.00,40.00
 ZoneVentilation Airflow Stats, THERMAL ZONE 15 VENTILATION PER PERSON,OFFICE MISC OCC,THERMAL ZONE 15,100.00,53.8,0.381,3.810E-003,7.079E-003,4.500,Natural,0.000,1.0,1.000,0.000,0.000,0.000,-100.00,100.00,-100.00,-100.00,100.00,40.00
 ZoneVentilation Airflow Stats, THERMAL ZONE 2 VENTILATION PER FLOOR AREA,ALWAYS_ON,THERMAL ZONE 2,56.00,6.0,0.273,4.877E-003,4.531E-002,5.760,Natural,0.000,1.0,1.000,0.000,0.000,0.000,-100.00,100.00,-100.00,-100.00,100.00,40.00
 ZoneVentilation Airflow Stats, THERMAL ZONE 3 VENTILATION PER FLOOR AREA,ALWAYS_ON,THERMAL ZONE 3,21.00,0.0,5.334E-003,2.540E-004,N/A,0.300,Natural,0.000,1.0,1.000,0.000,0.000,0.000,-100.00,100.00,-100.00,-100.00,100.00,40.00
 ZoneVentilation Airflow Stats, THERMAL ZONE 4 VENTILATION PER FLOOR AREA,ALWAYS_ON,THERMAL ZONE 4,217.00,2.3,5.512E-002,2.540E-004,2.360E-002,0.300,Natural,0.000,1.0,1.000,0.000,0.000,0.000,-100.00,100.00,-100.00,-100.00,100.00,40.00
 ZoneVentilation Airflow Stats, THERMAL ZONE 5 VENTILATION PER PERSON,OFFICE MISC OCC,THERMAL ZONE 5,100.00,53.8,0.381,3.810E-003,7.079E-003,4.500,Natural,0.000,1.0,1.000,0.000,0.000,0.000,-100.00,100.00,-100.00,-100.00,100.00,40.00
 ZoneVentilation Airflow Stats, THERMAL ZONE 6 VENTILATION PER PERSON,OFFICE WORK OCC,THERMAL ZONE 6,490.00,27.7,0.261,5.334E-004,9.439E-003,0.630,Natural,0.000,1.0,1.000,0.000,0.000,0.000,-100.00,100.00,-100.00,-100.00,100.00,40.00
 ZoneVentilation Airflow Stats, THERMAL ZONE 7 VENTILATION PER FLOOR AREA,ALWAYS_ON,THERMAL ZONE 7,56.00,6.0,0.273,4.877E-003,4.531E-002,5.760,Natural,0.000,1.0,1.000,0.000,0.000,0.000,-100.00,100.00,-100.00,-100.00,100.00,40.00
 ZoneVentilation Airflow Stats, THERMAL ZONE 8 VENTILATION PER FLOOR AREA,ALWAYS_ON,THERMAL ZONE 8,21.00,0.0,5.334E-003,2.540E-004,N/A,0.300,Natural,0.000,1.0,1.000,0.000,0.000,0.000,-100.00,100.00,-100.00,-100.00,100.00,40.00
 ZoneVentilation Airflow Stats, THERMAL ZONE 9 VENTILATION PER FLOOR AREA,ALWAYS_ON,THERMAL ZONE 9,217.00,2.3,5.512E-002,2.540E-004,2.360E-002,0.300,Natural,0.000,1.0,1.000,0.000,0.000,0.000,-100.00,100.00,-100.00,-100.00,100.00,40.00
! <AirFlow Model>, Simple
 AirFlow Model, Simple
! <RoomAir Model>, Zone Name, Mixing/Mundt/UCSDDV/UCSDCV/UCSDUFI/UCSDUFE/User Defined
RoomAir Model,THERMAL ZONE 1,Mixing/Well-Stirred
RoomAir Model,THERMAL ZONE 10,Mixing/Well-Stirred
RoomAir Model,THERMAL ZONE 11,Mixing/Well-Stirred
RoomAir Model,THERMAL ZONE 12,Mixing/Well-Stirred
RoomAir Model,THERMAL ZONE 13,Mixing/Well-Stirred
RoomAir Model,THERMAL ZONE 14,Mixing/Well-Stirred
RoomAir Model,THERMAL ZONE 15,Mixing/Well-Stirred
RoomAir Model,THERMAL ZONE 2,Mixing/Well-Stirred
RoomAir Model,THERMAL ZONE 3,Mixing/Well-Stirred
RoomAir Model,THERMAL ZONE 4,Mixing/Well-Stirred
RoomAir Model,THERMAL ZONE 5,Mixing/Well-Stirred
RoomAir Model,THERMAL ZONE 6,Mixing/Well-Stirred
RoomAir Model,THERMAL ZONE 7,Mixing/Well-Stirred
RoomAir Model,THERMAL ZONE 8,Mixing/Well-Stirred
RoomAir Model,THERMAL ZONE 9,Mixing/Well-Stirred
! <AirflowNetwork Model:Control>, No Multizone or Distribution/Multizone with Distribution/Multizone without Distribution/Multizone with Distribution only during Fan Operation
AirflowNetwork Model:Control,NoMultizoneOrDistribution
! <Zone Volume Capacitance Multiplier>, Sensible Heat Capacity Multiplier, Moisture Capacity Multiplier, Carbon Dioxide Capacity Multiplier, Generic Contaminant Capacity Multiplier
Zone Volume Capacitance Multiplier,   1.000 ,   1.000,   1.000,   1.000
! <Load Timesteps in Zone Design Calculation Averaging Window>, Value
 Load Timesteps in Zone Design Calculation Averaging Window,    4
! <Heating Sizing Factor Information>, Sizing Factor ID, Value
 Heating Sizing Factor Information, Global,   1.2500    
 Heating Sizing Factor Information, Zone THERMAL ZONE 1,   1.2500    
 Heating Sizing Factor Information, Zone THERMAL ZONE 10,   1.2500    
 Heating Sizing Factor Information, Zone THERMAL ZONE 11,   1.2500    
 Heating Sizing Factor Information, Zone THERMAL ZONE 12,   1.2500    
 Heating Sizing Factor Information, Zone THERMAL ZONE 13,   1.2500    
 Heating Sizing Factor Information, Zone THERMAL ZONE 14,   1.2500    
 Heating Sizing Factor Information, Zone THERMAL ZONE 15,   1.2500    
 Heating Sizing Factor Information, Zone THERMAL ZONE 2,   1.2500    
 Heating Sizing Factor Information, Zone THERMAL ZONE 3,   1.2500    
 Heating Sizing Factor Information, Zone THERMAL ZONE 4,   1.2500    
 Heating Sizing Factor Information, Zone THERMAL ZONE 5,   1.2500    
 Heating Sizing Factor Information, Zone THERMAL ZONE 6,   1.2500    
 Heating Sizing Factor Information, Zone THERMAL ZONE 7,   1.2500    
 Heating Sizing Factor Information, Zone THERMAL ZONE 8,   1.2500    
 Heating Sizing Factor Information, Zone THERMAL ZONE 9,   1.2500    
! <Cooling Sizing Factor Information>, Sizing Factor ID, Value
 Cooling Sizing Factor Information, Global,   1.1500    
 Cooling Sizing Factor Information, Zone THERMAL ZONE 1,   1.1500    
 Cooling Sizing Factor Information, Zone THERMAL ZONE 10,   1.1500    
 Cooling Sizing Factor Information, Zone THERMAL ZONE 11,   1.1500    
 Cooling Sizing Factor Information, Zone THERMAL ZONE 12,   1.1500    
 Cooling Sizing Factor Information, Zone THERMAL ZONE 13,   1.1500    
 Cooling Sizing Factor Information, Zone THERMAL ZONE 14,   1.1500    
 Cooling Sizing Factor Information, Zone THERMAL ZONE 15,   1.1500    
 Cooling Sizing Factor Information, Zone THERMAL ZONE 2,   1.1500    
 Cooling Sizing Factor Information, Zone THERMAL ZONE 3,   1.1500    
 Cooling Sizing Factor Information, Zone THERMAL ZONE 4,   1.1500    
 Cooling Sizing Factor Information, Zone THERMAL ZONE 5,   1.1500    
 Cooling Sizing Factor Information, Zone THERMAL ZONE 6,   1.1500    
 Cooling Sizing Factor Information, Zone THERMAL ZONE 7,   1.1500    
 Cooling Sizing Factor Information, Zone THERMAL ZONE 8,   1.1500    
 Cooling Sizing Factor Information, Zone THERMAL ZONE 9,   1.1500    
! <Zone Sizing Information>, Zone Name, Load Type, Calc Des Load {W}, User Des Load {W}, Calc Des Air Flow Rate {m3/s}, User Des Air Flow Rate {m3/s}, Design Day Name, Date/Time of Peak, Temperature at Peak {C}, Humidity Ratio at Peak {kgWater/kgDryAir}, Floor Area {m2}, # Occupants, Calc Outdoor Air Flow Rate {m3/s}, Calc DOAS Heat Addition Rate {W}
 Zone Sizing Information, THERMAL ZONE 1, Cooling, 14401.99078, 16562.28940, 1.17522, 1.35150, SINGAPORE ANN CLG .4% CONDNS DB=>MWB, 6/21 15:45:00, 32.95250, 1.90399E-002, 490.00000, 27.69016, 0.26137, 0.00000
 Zone Sizing Information, THERMAL ZONE 1, Heating, 20290.74901, 25363.43626, 0.87111, 1.08888, REYKJAVIK ANN HTG 99.6% CONDNS DB, 1/21 06:00:00, -9.90000, 1.62556E-003, 490.00000, 27.69016, 0.26137, 0.00000
 Zone Sizing Information, THERMAL ZONE 10, Cooling, 16355.88950, 18809.27293, 1.33935, 1.54025, SINGAPORE ANN CLG .4% CONDNS DB=>MWB, 6/21 15:45:00, 32.95250, 1.90399E-002, 100.00000, 53.81955, 0.38100, 0.00000
 Zone Sizing Information, THERMAL ZONE 10, Heating, 8571.31152, 10714.13940, 0.36792, 0.45990, REYKJAVIK ANN HTG 99.6% CONDNS DB, 1/21 06:00:00, -9.90000, 1.62556E-003, 100.00000, 53.81955, 0.38100, 0.00000
 Zone Sizing Information, THERMAL ZONE 11, Cooling, 23993.02401, 27591.97761, 1.95775, 2.25141, SINGAPORE ANN CLG .4% CONDNS DB=>MWB, 6/21 17:15:00, 32.29250, 1.90399E-002, 490.00000, 27.69016, 0.26137, 0.00000
 Zone Sizing Information, THERMAL ZONE 11, Heating, 31210.87969, 39013.59961, 1.33959, 1.67448, REYKJAVIK ANN HTG 99.6% CONDNS DB, 1/21 06:00:00, -9.90000, 1.62556E-003, 490.00000, 27.69016, 0.26137, 0.00000
 Zone Sizing Information, THERMAL ZONE 12, Cooling, 4735.08123, 5445.34341, 0.38726, 0.44534, SINGAPORE ANN CLG .4% CONDNS DB=>MWB, 6/21 15:30:00, 33.03500, 1.90399E-002, 56.00000, 6.02779, 0.27310, 0.00000
 Zone Sizing Information, THERMAL ZONE 12, Heating, 14361.10469, 17951.38086, 0.61518, 0.76897, REYKJAVIK ANN HTG 99.6% CONDNS DB, 1/21 06:00:00, -9.90000, 1.62556E-003, 56.00000, 6.02779, 0.27310, 0.00000
 Zone Sizing Information, THERMAL ZONE 13, Cooling, 847.46660, 974.58659, 6.91076E-002, 7.94738E-002, SINGAPORE ANN CLG .4% CONDNS DB=>MWB, 6/21 18:00:00, 31.88000, 1.90399E-002, 21.00000, 0.00000, 5.33400E-003, 0.00000
 Zone Sizing Information, THERMAL ZONE 13, Heating, 1989.77949, 2487.22436, 8.53948E-002, 0.10674, REYKJAVIK ANN HTG 99.6% CONDNS DB, 1/21 06:00:00, -9.90000, 1.62556E-003, 21.00000, 0.00000, 5.33400E-003, 0.00000
 Zone Sizing Information, THERMAL ZONE 14, Cooling, 3872.25332, 4453.09132, 0.29570, 0.34006, SINGAPORE ANN CLG .4% CONDNS DB=>MWB, 6/21 07:00:00, 28.19500, 1.90399E-002, 217.00000, 2.33577, 5.51180E-002, 0.00000
 Zone Sizing Information, THERMAL ZONE 14, Heating, 7370.84420, 9213.55525, 0.31635, 0.39543, REYKJAVIK ANN HTG 99.6% CONDNS DB, 1/21 06:00:00, -9.90000, 1.62556E-003, 217.00000, 2.33577, 5.51180E-002, 0.00000
 Zone Sizing Information, THERMAL ZONE 15, Cooling, 16866.43083, 19396.39546, 1.38116, 1.58834, SINGAPORE ANN CLG .4% CONDNS DB=>MWB, 6/21 16:15:00, 32.76000, 1.90399E-002, 100.00000, 53.81955, 0.38100, 0.00000
 Zone Sizing Information, THERMAL ZONE 15, Heating, 10459.69162, 13074.61453, 0.44888, 0.56110, REYKJAVIK ANN HTG 99.6% CONDNS DB, 1/21 06:00:00, -9.90000, 1.62556E-003, 100.00000, 53.81955, 0.38100, 0.00000
 Zone Sizing Information, THERMAL ZONE 2, Cooling, 3673.90873, 4224.99504, 0.30056, 0.34564, SINGAPORE ANN CLG .4% CONDNS DB=>MWB, 6/21 15:00:00, 33.20000, 1.90399E-002, 56.00000, 6.02779, 0.27310, 0.00000
 Zone Sizing Information, THERMAL ZONE 2, Heating, 13221.05887, 16526.32358, 0.56637, 0.70797, REYKJAVIK ANN HTG 99.6% CONDNS DB, 1/21 06:00:00, -9.90000, 1.62556E-003, 56.00000, 6.02779, 0.27310, 0.00000
 Zone Sizing Information, THERMAL ZONE 3, Cooling, 306.81695, 352.83950, 2.50196E-002, 2.87726E-002, SINGAPORE ANN CLG .4% CONDNS DB=>MWB, 6/21 17:30:00, 32.15500, 1.90399E-002, 21.00000, 0.00000, 5.33400E-003, 0.00000
 Zone Sizing Information, THERMAL ZONE 3, Heating, 1513.15568, 1891.44460, 6.49503E-002, 8.11879E-002, REYKJAVIK ANN HTG 99.6% CONDNS DB, 1/21 06:00:00, -9.90000, 1.62556E-003, 21.00000, 0.00000, 5.33400E-003, 0.00000
 Zone Sizing Information, THERMAL ZONE 4, Cooling, 300.90156, 346.03679, 2.45310E-002, 5.51180E-002, SINGAPORE ANN CLG .4% CONDNS DB=>MWB, 6/21 15:00:00, 33.20000, 1.90399E-002, 217.00000, 2.33577, 5.51180E-002, 0.00000
 Zone Sizing Information, THERMAL ZONE 4, Heating, 3843.90661, 4804.88326, 0.16501, 0.20627, REYKJAVIK ANN HTG 99.6% CONDNS DB, 1/21 07:00:00, -9.90000, 1.62556E-003, 217.00000, 2.33577, 5.51180E-002, 0.00000
 Zone Sizing Information, THERMAL ZONE 5, Cooling, 14296.69862, 16441.20341, 1.17124, 1.34692, SINGAPORE ANN CLG .4% CONDNS DB=>MWB, 6/21 15:00:00, 33.20000, 1.90399E-002, 100.00000, 53.81955, 0.38100, 0.00000
 Zone Sizing Information, THERMAL ZONE 5, Heating, 7659.35663, 9574.19579, 0.32878, 0.41097, REYKJAVIK ANN HTG 99.6% CONDNS DB, 1/21 06:00:00, -9.90000, 1.62556E-003, 100.00000, 53.81955, 0.38100, 0.00000
 Zone Sizing Information, THERMAL ZONE 6, Cooling, 21188.28769, 24366.53084, 1.72877, 1.98809, SINGAPORE ANN CLG .4% CONDNS DB=>MWB, 6/21 16:30:00, 32.65000, 1.90399E-002, 490.00000, 27.69016, 0.26137, 0.00000
 Zone Sizing Information, THERMAL ZONE 6, Heating, 21826.66590, 27283.33238, 0.93704, 1.17131, REYKJAVIK ANN HTG 99.6% CONDNS DB, 1/21 06:00:00, -9.90000, 1.62556E-003, 490.00000, 27.69016, 0.26137, 0.00000
 Zone Sizing Information, THERMAL ZONE 7, Cooling, 4463.93221, 5133.52204, 0.36508, 0.41984, SINGAPORE ANN CLG .4% CONDNS DB=>MWB, 6/21 15:00:00, 33.20000, 1.90399E-002, 56.00000, 6.02779, 0.27310, 0.00000
 Zone Sizing Information, THERMAL ZONE 7, Heating, 13244.37557, 16555.46946, 0.56737, 0.70921, REYKJAVIK ANN HTG 99.6% CONDNS DB, 1/21 06:00:00, -9.90000, 1.62556E-003, 56.00000, 6.02779, 0.27310, 0.00000
 Zone Sizing Information, THERMAL ZONE 8, Cooling, 702.21225, 807.54409, 5.72588E-002, 6.58476E-002, SINGAPORE ANN CLG .4% CONDNS DB=>MWB, 6/21 17:45:00, 32.01750, 1.90399E-002, 21.00000, 0.00000, 5.33400E-003, 0.00000
 Zone Sizing Information, THERMAL ZONE 8, Heating, 1555.88803, 1944.86004, 6.67846E-002, 8.34808E-002, REYKJAVIK ANN HTG 99.6% CONDNS DB, 1/21 06:00:00, -9.90000, 1.62556E-003, 21.00000, 0.00000, 5.33400E-003, 0.00000
 Zone Sizing Information, THERMAL ZONE 9, Cooling, 3117.15981, 3584.73378, 0.23490, 0.27013, SINGAPORE ANN CLG .4% CONDNS DB=>MWB, 6/21 07:00:00, 28.19500, 1.90399E-002, 217.00000, 2.33577, 5.51180E-002, 0.00000
 Zone Sizing Information, THERMAL ZONE 9, Heating, 3355.84206, 4194.80258, 0.14406, 0.18008, REYKJAVIK ANN HTG 99.6% CONDNS DB, 1/21 07:15:00, -9.90000, 1.62556E-003, 217.00000, 2.33577, 5.51180E-002, 0.00000
! <Component Sizing Information>, Component Type, Component Name, Input Field Description, Value
 Component Sizing Information, ZoneHVAC:IdealLoadsAirSystem, THERMAL ZONE 1 IDEAL LOADS AIR SYSTEM, User-Specified Maximum Heating Air Flow Rate [m3/s], 0.00000
 Component Sizing Information, ZoneHVAC:IdealLoadsAirSystem, THERMAL ZONE 1 IDEAL LOADS AIR SYSTEM, User-Specified Maximum Cooling Air Flow Rate [m3/s], 0.00000
 Component Sizing Information, ZoneHVAC:IdealLoadsAirSystem, THERMAL ZONE 10 IDEAL LOADS AIR SYSTEM, User-Specified Maximum Heating Air Flow Rate [m3/s], 0.00000
 Component Sizing Information, ZoneHVAC:IdealLoadsAirSystem, THERMAL ZONE 10 IDEAL LOADS AIR SYSTEM, User-Specified Maximum Cooling Air Flow Rate [m3/s], 0.00000
 Component Sizing Information, ZoneHVAC:IdealLoadsAirSystem, THERMAL ZONE 11 IDEAL LOADS AIR SYSTEM, User-Specified Maximum Heating Air Flow Rate [m3/s], 0.00000
 Component Sizing Information, ZoneHVAC:IdealLoadsAirSystem, THERMAL ZONE 11 IDEAL LOADS AIR SYSTEM, User-Specified Maximum Cooling Air Flow Rate [m3/s], 0.00000
 Component Sizing Information, ZoneHVAC:IdealLoadsAirSystem, THERMAL ZONE 12 IDEAL LOADS AIR SYSTEM, User-Specified Maximum Heating Air Flow Rate [m3/s], 0.00000
 Component Sizing Information, ZoneHVAC:IdealLoadsAirSystem, THERMAL ZONE 12 IDEAL LOADS AIR SYSTEM, User-Specified Maximum Cooling Air Flow Rate [m3/s], 0.00000
 Component Sizing Information, ZoneHVAC:IdealLoadsAirSystem, THERMAL ZONE 13 IDEAL LOADS AIR SYSTEM, User-Specified Maximum Heating Air Flow Rate [m3/s], 0.00000
 Component Sizing Information, ZoneHVAC:IdealLoadsAirSystem, THERMAL ZONE 13 IDEAL LOADS AIR SYSTEM, User-Specified Maximum Cooling Air Flow Rate [m3/s], 0.00000
 Component Sizing Information, ZoneHVAC:IdealLoadsAirSystem, THERMAL ZONE 14 IDEAL LOADS AIR SYSTEM, User-Specified Maximum Heating Air Flow Rate [m3/s], 0.00000
 Component Sizing Information, ZoneHVAC:IdealLoadsAirSystem, THERMAL ZONE 14 IDEAL LOADS AIR SYSTEM, User-Specified Maximum Cooling Air Flow Rate [m3/s], 0.00000
 Component Sizing Information, ZoneHVAC:IdealLoadsAirSystem, THERMAL ZONE 15 IDEAL LOADS AIR SYSTEM, User-Specified Maximum Heating Air Flow Rate [m3/s], 0.00000
 Component Sizing Information, ZoneHVAC:IdealLoadsAirSystem, THERMAL ZONE 15 IDEAL LOADS AIR SYSTEM, User-Specified Maximum Cooling Air Flow Rate [m3/s], 0.00000
 Component Sizing Information, ZoneHVAC:IdealLoadsAirSystem, THERMAL ZONE 2 IDEAL LOADS AIR SYSTEM, User-Specified Maximum Heating Air Flow Rate [m3/s], 0.00000
 Component Sizing Information, ZoneHVAC:IdealLoadsAirSystem, THERMAL ZONE 2 IDEAL LOADS AIR SYSTEM, User-Specified Maximum Cooling Air Flow Rate [m3/s], 0.00000
 Component Sizing Information, ZoneHVAC:IdealLoadsAirSystem, THERMAL ZONE 3 IDEAL LOADS AIR SYSTEM, User-Specified Maximum Heating Air Flow Rate [m3/s], 0.00000
 Component Sizing Information, ZoneHVAC:IdealLoadsAirSystem, THERMAL ZONE 3 IDEAL LOADS AIR SYSTEM, User-Specified Maximum Cooling Air Flow Rate [m3/s], 0.00000
 Component Sizing Information, ZoneHVAC:IdealLoadsAirSystem, THERMAL ZONE 4 IDEAL LOADS AIR SYSTEM, User-Specified Maximum Heating Air Flow Rate [m3/s], 0.00000
 Component Sizing Information, ZoneHVAC:IdealLoadsAirSystem, THERMAL ZONE 4 IDEAL LOADS AIR SYSTEM, User-Specified Maximum Cooling Air Flow Rate [m3/s], 0.00000
 Component Sizing Information, ZoneHVAC:IdealLoadsAirSystem, THERMAL ZONE 5 IDEAL LOADS AIR SYSTEM, User-Specified Maximum Heating Air Flow Rate [m3/s], 0.00000
 Component Sizing Information, ZoneHVAC:IdealLoadsAirSystem, THERMAL ZONE 5 IDEAL LOADS AIR SYSTEM, User-Specified Maximum Cooling Air Flow Rate [m3/s], 0.00000
 Component Sizing Information, ZoneHVAC:IdealLoadsAirSystem, THERMAL ZONE 6 IDEAL LOADS AIR SYSTEM, User-Specified Maximum Heating Air Flow Rate [m3/s], 0.00000
 Component Sizing Information, ZoneHVAC:IdealLoadsAirSystem, THERMAL ZONE 6 IDEAL LOADS AIR SYSTEM, User-Specified Maximum Cooling Air Flow Rate [m3/s], 0.00000
 Component Sizing Information, ZoneHVAC:IdealLoadsAirSystem, THERMAL ZONE 7 IDEAL LOADS AIR SYSTEM, User-Specified Maximum Heating Air Flow Rate [m3/s], 0.00000
 Component Sizing Information, ZoneHVAC:IdealLoadsAirSystem, THERMAL ZONE 7 IDEAL LOADS AIR SYSTEM, User-Specified Maximum Cooling Air Flow Rate [m3/s], 0.00000
 Component Sizing Information, ZoneHVAC:IdealLoadsAirSystem, THERMAL ZONE 8 IDEAL LOADS AIR SYSTEM, User-Specified Maximum Heating Air Flow Rate [m3/s], 0.00000
 Component Sizing Information, ZoneHVAC:IdealLoadsAirSystem, THERMAL ZONE 8 IDEAL LOADS AIR SYSTEM, User-Specified Maximum Cooling Air Flow Rate [m3/s], 0.00000
 Component Sizing Information, ZoneHVAC:IdealLoadsAirSystem, THERMAL ZONE 9 IDEAL LOADS AIR SYSTEM, User-Specified Maximum Heating Air Flow Rate [m3/s], 0.00000
 Component Sizing Information, ZoneHVAC:IdealLoadsAirSystem, THERMAL ZONE 9 IDEAL LOADS AIR SYSTEM, User-Specified Maximum Cooling Air Flow Rate [m3/s], 0.00000
! <Environment>,Environment Name,Environment Type, Start Date, End Date, Start DayOfWeek, Duration {#days}, Source:Start DayOfWeek,  Use Daylight Saving, Use Holidays, Apply Weekend Holiday Rule,  Use Rain Values, Use Snow Values
! <Environment:Special Days>, Special Day Name, Special Day Type, Source, Start Date, Duration {#days}
! <Environment:Daylight Saving>, Daylight Saving Indicator, Source, Start Date, End Date
! <Environment:WarmupDays>, NumberofWarmupDays
Environment,PIACENZA ANN CLG .4% CONDNS DB=>MWB,SizingPeriod:DesignDay,08/21,08/21,SummerDesignDay,1,N/A,N/A,N/A,N/A,N/A,N/A
Environment:Daylight Saving,No,SizingPeriod:DesignDay
! <Environment:Design Day Data>, Max Dry-Bulb Temp {C}, Temp Range {dC}, Temp Range Ind Type, Hum Ind Value at Max Temp, Hum Ind Type,Pressure {Pa}, Wind Direction {deg CW from N}, Wind Speed {m/s}, Clearness, Rain, Snow
! <Environment:Design_Day_Misc>,DayOfYear,ASHRAE A Coeff,ASHRAE B Coeff,ASHRAE C Coeff,Solar Constant-Annual Variation,Eq of Time {minutes}, Solar Declination Angle {deg}, Solar Model
Environment:Design Day Data,33.10,11.90,DefaultMultipliers,99726,90,2.3,0.00,No,No
Environment:Design_Day_Misc,233,1106.3,0.2000,0.1216,1.0,-3.33,12.4,ASHRAETau
Environment:WarmupDays,  6
! <Tabular Report>,Style,Unit Conversion
Tabular Report,HTML,None
! <Warmup Convergence Information>,Zone Name,Environment Type/Name,Average Warmup Temperature Difference {deltaC},Std Dev Warmup Temperature Difference {deltaC},Max Temperature Pass/Fail Convergence,Min Temperature Pass/Fail Convergence,Average Warmup Load Difference {W},Std Dev Warmup Load Difference {W},Heating Load Pass/Fail Convergence,Cooling Load Pass/Fail Convergence
 Warmup Convergence Information,THERMAL ZONE 1,SizingPeriod: PIACENZA ANN CLG .4% CONDNS DB=>MWB,5.1385157379E-002,0.2420914190,Pass,Pass,8.1553024763E-002,0.4955925129,Pass,Pass
 Warmup Convergence Information,THERMAL ZONE 10,SizingPeriod: PIACENZA ANN CLG .4% CONDNS DB=>MWB,5.6250000000E-002,0.3668598603,Pass,Pass,2.6596945804E-002,8.9439873860E-002,Pass,Pass
 Warmup Convergence Information,THERMAL ZONE 11,SizingPeriod: PIACENZA ANN CLG .4% CONDNS DB=>MWB,5.7094661840E-002,0.3502934305,Pass,Pass,4.9157084727E-002,0.1680785928,Pass,Pass
 Warmup Convergence Information,THERMAL ZONE 12,SizingPeriod: PIACENZA ANN CLG .4% CONDNS DB=>MWB,4.2235774852E-002,0.1492686290,Pass,Pass,4.0436158715E-002,8.6439058418E-002,Pass,Pass
 Warmup Convergence Information,THERMAL ZONE 13,SizingPeriod: PIACENZA ANN CLG .4% CONDNS DB=>MWB,5.2748733765E-002,0.2128885892,Pass,Pass,4.4602863159E-002,0.1738319846,Pass,Pass
 Warmup Convergence Information,THERMAL ZONE 14,SizingPeriod: PIACENZA ANN CLG .4% CONDNS DB=>MWB,6.0137393733E-002,0.3237997153,Pass,Pass,5.7110480907E-002,0.1604337625,Pass,Pass
 Warmup Convergence Information,THERMAL ZONE 15,SizingPeriod: PIACENZA ANN CLG .4% CONDNS DB=>MWB,5.6250000000E-002,0.3672651059,Pass,Pass,2.7092070160E-002,8.9770916822E-002,Pass,Pass
 Warmup Convergence Information,THERMAL ZONE 2,SizingPeriod: PIACENZA ANN CLG .4% CONDNS DB=>MWB,4.4444761564E-002,8.2456008045E-002,Pass,Pass,4.2517101638E-002,7.3776356360E-002,Pass,Pass
 Warmup Convergence Information,THERMAL ZONE 3,SizingPeriod: PIACENZA ANN CLG .4% CONDNS DB=>MWB,3.0532638403E-002,5.0785473879E-002,Pass,Pass,8.8914935277E-002,0.3164581886,Pass,Pass
 Warmup Convergence Information,THERMAL ZONE 4,SizingPeriod: PIACENZA ANN CLG .4% CONDNS DB=>MWB,2.1175693658E-002,1.8897103806E-002,Pass,Pass,3.6290989668E-002,0.1011663316,Pass,Pass
 Warmup Convergence Information,THERMAL ZONE 5,SizingPeriod: PIACENZA ANN CLG .4% CONDNS DB=>MWB,5.6250000000E-002,0.3631702044,Pass,Pass,3.2547122249E-002,0.1098865323,Pass,Pass
 Warmup Convergence Information,THERMAL ZONE 6,SizingPeriod: PIACENZA ANN CLG .4% CONDNS DB=>MWB,5.7132358128E-002,0.3440734111,Pass,Pass,5.5485097857E-002,0.2010159213,Pass,Pass
 Warmup Convergence Information,THERMAL ZONE 7,SizingPeriod: PIACENZA ANN CLG .4% CONDNS DB=>MWB,4.1289718211E-002,0.1270495581,Pass,Pass,4.3754735657E-002,8.0118424095E-002,Pass,Pass
 Warmup Convergence Information,THERMAL ZONE 8,SizingPeriod: PIACENZA ANN CLG .4% CONDNS DB=>MWB,4.0919763529E-002,0.1750467001,Pass,Pass,7.5669356177E-002,0.3870679497,Pass,Pass
 Warmup Convergence Information,THERMAL ZONE 9,SizingPeriod: PIACENZA ANN CLG .4% CONDNS DB=>MWB,6.0657620664E-002,0.2934037789,Pass,Pass,3.1216665975E-002,0.1477411484,Pass,Pass
Environment,PIACENZA ANN CLG .4% CONDNS DP=>MDB,SizingPeriod:DesignDay,08/21,08/21,SummerDesignDay,1,N/A,N/A,N/A,N/A,N/A,N/A
Environment:Daylight Saving,No,SizingPeriod:DesignDay
Environment:Design Day Data,27.40,11.90,DefaultMultipliers,99726,90,2.3,0.00,No,No
Environment:Design_Day_Misc,233,1106.3,0.2000,0.1216,1.0,-3.33,12.4,ASHRAETau
Environment:WarmupDays,  6
 Warmup Convergence Information,THERMAL ZONE 1,SizingPeriod: PIACENZA ANN CLG .4% CONDNS DP=>MDB,2.1965058573E-002,6.8441917933E-002,Pass,Pass,6.6558911458E-002,0.2158779163,Pass,Pass
 Warmup Convergence Information,THERMAL ZONE 10,SizingPeriod: PIACENZA ANN CLG .4% CONDNS DP=>MDB,5.6250000000E-002,0.3654578514,Pass,Pass,2.9026466681E-002,5.9397839795E-002,Pass,Pass
 Warmup Convergence Information,THERMAL ZONE 11,SizingPeriod: PIACENZA ANN CLG .4% CONDNS DP=>MDB,5.8983818094E-002,0.3312754685,Pass,Pass,0.1587209937,0.4257838030,Pass,Pass
 Warmup Convergence Information,THERMAL ZONE 12,SizingPeriod: PIACENZA ANN CLG .4% CONDNS DP=>MDB,9.2503456205E-002,0.1219263983,Pass,Pass,7.6143872903E-002,0.2271719518,Pass,Pass
 Warmup Convergence Information,THERMAL ZONE 13,SizingPeriod: PIACENZA ANN CLG .4% CONDNS DP=>MDB,4.0250129530E-002,6.2503491839E-002,Pass,Pass,4.0550842820E-002,7.3614340575E-002,Pass,Pass
 Warmup Convergence Information,THERMAL ZONE 14,SizingPeriod: PIACENZA ANN CLG .4% CONDNS DP=>MDB,3.8866746454E-002,0.1172401859,Pass,Pass,3.4488095527E-002,0.1458951916,Pass,Pass
 Warmup Convergence Information,THERMAL ZONE 15,SizingPeriod: PIACENZA ANN CLG .4% CONDNS DP=>MDB,5.6250000000E-002,0.3661002727,Pass,Pass,3.1661285814E-002,6.7135406613E-002,Pass,Pass
 Warmup Convergence Information,THERMAL ZONE 2,SizingPeriod: PIACENZA ANN CLG .4% CONDNS DP=>MDB,0.1218017677,0.1325126600,Pass,Pass,4.4705178383E-002,0.1252049559,Pass,Pass
 Warmup Convergence Information,THERMAL ZONE 3,SizingPeriod: PIACENZA ANN CLG .4% CONDNS DP=>MDB,7.8463922070E-002,6.2753631543E-002,Pass,Pass,5.6727070400E-002,0.2742156825,Pass,Pass
 Warmup Convergence Information,THERMAL ZONE 4,SizingPeriod: PIACENZA ANN CLG .4% CONDNS DP=>MDB,3.1432334144E-002,1.7607307133E-002,Pass,Pass,0.0000000000,0.0000000000,Pass,Pass
 Warmup Convergence Information,THERMAL ZONE 5,SizingPeriod: PIACENZA ANN CLG .4% CONDNS DP=>MDB,5.6250000000E-002,0.3626856016,Pass,Pass,3.7839983607E-002,8.3171515227E-002,Pass,Pass
 Warmup Convergence Information,THERMAL ZONE 6,SizingPeriod: PIACENZA ANN CLG .4% CONDNS DP=>MDB,5.8989932639E-002,0.3358313892,Pass,Pass,0.1157687406,0.4250930688,Pass,Pass
 Warmup Convergence Information,THERMAL ZONE 7,SizingPeriod: PIACENZA ANN CLG .4% CONDNS DP=>MDB,9.4051580499E-002,0.1204876668,Pass,Pass,7.0492377309E-002,0.2115862171,Pass,Pass
 Warmup Convergence Information,THERMAL ZONE 8,SizingPeriod: PIACENZA ANN CLG .4% CONDNS DP=>MDB,3.4060708462E-002,5.1748479872E-002,Pass,Pass,4.5138082688E-002,7.7899093996E-002,Pass,Pass
 Warmup Convergence Information,THERMAL ZONE 9,SizingPeriod: PIACENZA ANN CLG .4% CONDNS DP=>MDB,3.1484549243E-002,0.1551713499,Pass,Pass,5.9236550616E-002,0.2948356310,Pass,Pass
Environment,PIACENZA ANN CLG .4% CONDNS ENTH=>MDB,SizingPeriod:DesignDay,08/21,08/21,SummerDesignDay,1,N/A,N/A,N/A,N/A,N/A,N/A
Environment:Daylight Saving,No,SizingPeriod:DesignDay
Environment:Design Day Data,30.30,11.90,DefaultMultipliers,99726,90,2.3,0.00,No,No
Environment:Design_Day_Misc,233,1106.3,0.2000,0.1216,1.0,-3.33,12.4,ASHRAETau
Environment:WarmupDays,  6
 Warmup Convergence Information,THERMAL ZONE 1,SizingPeriod: PIACENZA ANN CLG .4% CONDNS ENTH=>MDB,3.7428344905E-002,0.1593235530,Pass,Pass,4.9826461861E-002,0.1820226473,Pass,Pass
 Warmup Convergence Information,THERMAL ZONE 10,SizingPeriod: PIACENZA ANN CLG .4% CONDNS ENTH=>MDB,5.6250000000E-002,0.3661075457,Pass,Pass,2.7564488133E-002,7.5433877510E-002,Pass,Pass
 Warmup Convergence Information,THERMAL ZONE 11,SizingPeriod: PIACENZA ANN CLG .4% CONDNS ENTH=>MDB,5.7745664415E-002,0.3456819270,Pass,Pass,8.0475466992E-002,0.2839898429,Pass,Pass
 Warmup Convergence Information,THERMAL ZONE 12,SizingPeriod: PIACENZA ANN CLG .4% CONDNS ENTH=>MDB,5.2859389756E-002,8.7310134680E-002,Pass,Pass,4.3184519290E-002,7.8007568912E-002,Pass,Pass
 Warmup Convergence Information,THERMAL ZONE 13,SizingPeriod: PIACENZA ANN CLG .4% CONDNS ENTH=>MDB,2.9997135273E-002,9.5333175658E-002,Pass,Pass,4.0369844125E-002,0.1082971222,Pass,Pass
 Warmup Convergence Information,THERMAL ZONE 14,SizingPeriod: PIACENZA ANN CLG .4% CONDNS ENTH=>MDB,5.7847336244E-002,0.2506130963,Pass,Pass,4.5655643521E-002,0.2291059797,Pass,Pass
 Warmup Convergence Information,THERMAL ZONE 15,SizingPeriod: PIACENZA ANN CLG .4% CONDNS ENTH=>MDB,5.6250000000E-002,0.3670629403,Pass,Pass,2.9062602367E-002,7.9985216948E-002,Pass,Pass
 Warmup Convergence Information,THERMAL ZONE 2,SizingPeriod: PIACENZA ANN CLG .4% CONDNS ENTH=>MDB,7.8939233868E-002,0.1154713748,Pass,Pass,0.1374978428,0.7363394292,Pass,Pass
 Warmup Convergence Information,THERMAL ZONE 3,SizingPeriod: PIACENZA ANN CLG .4% CONDNS ENTH=>MDB,5.2990988430E-002,6.1522254815E-002,Pass,Pass,0.4737874389,4.0706201269,Pass,Pass
 Warmup Convergence Information,THERMAL ZONE 4,SizingPeriod: PIACENZA ANN CLG .4% CONDNS ENTH=>MDB,2.8194849344E-002,1.7050122727E-002,Pass,Pass,0.0000000000,0.0000000000,Pass,Pass
 Warmup Convergence Information,THERMAL ZONE 5,SizingPeriod: PIACENZA ANN CLG .4% CONDNS ENTH=>MDB,5.6250000000E-002,0.3623403547,Pass,Pass,3.4397479795E-002,9.3968333798E-002,Pass,Pass
 Warmup Convergence Information,THERMAL ZONE 6,SizingPeriod: PIACENZA ANN CLG .4% CONDNS ENTH=>MDB,5.7778978007E-002,0.3400745065,Pass,Pass,7.1538413384E-002,0.2163389336,Pass,Pass
 Warmup Convergence Information,THERMAL ZONE 7,SizingPeriod: PIACENZA ANN CLG .4% CONDNS ENTH=>MDB,5.0950897138E-002,8.7472454094E-002,Pass,Pass,4.9487010636E-002,8.7795462921E-002,Pass,Pass
 Warmup Convergence Information,THERMAL ZONE 8,SizingPeriod: PIACENZA ANN CLG .4% CONDNS ENTH=>MDB,2.3278353548E-002,6.7236000020E-002,Pass,Pass,4.6651718040E-002,9.8555121361E-002,Pass,Pass
 Warmup Convergence Information,THERMAL ZONE 9,SizingPeriod: PIACENZA ANN CLG .4% CONDNS ENTH=>MDB,4.4860498751E-002,0.2329676117,Pass,Pass,8.0083513614E-002,0.4790901228,Pass,Pass
Environment,PIACENZA ANN CLG .4% CONDNS WB=>MDB,SizingPeriod:DesignDay,08/21,08/21,SummerDesignDay,1,N/A,N/A,N/A,N/A,N/A,N/A
Environment:Daylight Saving,No,SizingPeriod:DesignDay
Environment:Design Day Data,30.10,11.90,DefaultMultipliers,99726,90,2.3,0.00,No,No
Environment:Design_Day_Misc,233,1106.3,0.2000,0.1216,1.0,-3.33,12.4,ASHRAETau
Environment:WarmupDays,  6
 Warmup Convergence Information,THERMAL ZONE 1,SizingPeriod: PIACENZA ANN CLG .4% CONDNS WB=>MDB,3.6253493967E-002,0.1524430740,Pass,Pass,5.0071644989E-002,0.1807881629,Pass,Pass
 Warmup Convergence Information,THERMAL ZONE 10,SizingPeriod: PIACENZA ANN CLG .4% CONDNS WB=>MDB,5.6250000000E-002,0.3658795995,Pass,Pass,2.7614369597E-002,7.4438306125E-002,Pass,Pass
 Warmup Convergence Information,THERMAL ZONE 11,SizingPeriod: PIACENZA ANN CLG .4% CONDNS WB=>MDB,5.7801508794E-002,0.3451962076,Pass,Pass,8.5463841894E-002,0.3071505219,Pass,Pass
 Warmup Convergence Information,THERMAL ZONE 12,SizingPeriod: PIACENZA ANN CLG .4% CONDNS WB=>MDB,5.4228475829E-002,8.8380430882E-002,Pass,Pass,4.4721115459E-002,7.4698977915E-002,Pass,Pass
 Warmup Convergence Information,THERMAL ZONE 13,SizingPeriod: PIACENZA ANN CLG .4% CONDNS WB=>MDB,3.0365150182E-002,9.0937322093E-002,Pass,Pass,4.5289225323E-002,0.1022206412,Pass,Pass
 Warmup Convergence Information,THERMAL ZONE 14,SizingPeriod: PIACENZA ANN CLG .4% CONDNS WB=>MDB,5.6392495570E-002,0.2407746350,Pass,Pass,4.5169794907E-002,0.2247666784,Pass,Pass
 Warmup Convergence Information,THERMAL ZONE 15,SizingPeriod: PIACENZA ANN CLG .4% CONDNS WB=>MDB,5.6250000000E-002,0.3670402935,Pass,Pass,2.9184353104E-002,7.9306828676E-002,Pass,Pass
 Warmup Convergence Information,THERMAL ZONE 2,SizingPeriod: PIACENZA ANN CLG .4% CONDNS WB=>MDB,8.1940438464E-002,0.1170307670,Pass,Pass,8.4854492062E-002,0.2826964728,Pass,Pass
 Warmup Convergence Information,THERMAL ZONE 3,SizingPeriod: PIACENZA ANN CLG .4% CONDNS WB=>MDB,5.4765012344E-002,6.1428243109E-002,Pass,Pass,7.3199922309E-002,0.2971618718,Pass,Pass
 Warmup Convergence Information,THERMAL ZONE 4,SizingPeriod: PIACENZA ANN CLG .4% CONDNS WB=>MDB,2.8345443676E-002,1.7076823961E-002,Pass,Pass,0.0000000000,0.0000000000,Pass,Pass
 Warmup Convergence Information,THERMAL ZONE 5,SizingPeriod: PIACENZA ANN CLG .4% CONDNS WB=>MDB,5.6250000000E-002,0.3623133097,Pass,Pass,3.4544979264E-002,9.3845145256E-002,Pass,Pass
 Warmup Convergence Information,THERMAL ZONE 6,SizingPeriod: PIACENZA ANN CLG .4% CONDNS WB=>MDB,5.7831105659E-002,0.3396586756,Pass,Pass,7.0815497037E-002,0.2080818841,Pass,Pass
 Warmup Convergence Information,THERMAL ZONE 7,SizingPeriod: PIACENZA ANN CLG .4% CONDNS WB=>MDB,5.3665013221E-002,9.0331087250E-002,Pass,Pass,5.1186183420E-002,8.0404850835E-002,Pass,Pass
 Warmup Convergence Information,THERMAL ZONE 8,SizingPeriod: PIACENZA ANN CLG .4% CONDNS WB=>MDB,2.4056879524E-002,6.4163575776E-002,Pass,Pass,5.2309432833E-002,9.8105360887E-002,Pass,Pass
 Warmup Convergence Information,THERMAL ZONE 9,SizingPeriod: PIACENZA ANN CLG .4% CONDNS WB=>MDB,4.3815954486E-002,0.2273003801,Pass,Pass,7.9207089908E-002,0.4701293387,Pass,Pass
Environment,PIACENZA ANN HTG 99.6% CONDNS DB,SizingPeriod:DesignDay,01/21,01/21,WinterDesignDay,1,N/A,N/A,N/A,N/A,N/A,N/A
Environment:Daylight Saving,No,SizingPeriod:DesignDay
Environment:Design Day Data,-6.10,0.00,DefaultMultipliers,99726,250,2.0,0.00,No,No
Environment:Design_Day_Misc, 21,1229.0,0.1415,5.7310E-002,1.0,-11.15,-20.1,ASHRAEClearSky
Environment:WarmupDays,  6
 Warmup Convergence Information,THERMAL ZONE 1,SizingPeriod: PIACENZA ANN HTG 99.6% CONDNS DB,7.8899849617E-014,5.4440136922E-014,Pass,Pass,3.1470652945E-003,2.1636895169E-002,Pass,Pass
 Warmup Convergence Information,THERMAL ZONE 10,SizingPeriod: PIACENZA ANN HTG 99.6% CONDNS DB,8.2341540993E-014,1.0496048840E-013,Pass,Pass,3.1164001678E-003,2.1424875725E-002,Pass,Pass
 Warmup Convergence Information,THERMAL ZONE 11,SizingPeriod: PIACENZA ANN HTG 99.6% CONDNS DB,1.0695148471E-013,9.4076333338E-014,Pass,Pass,5.8546197223E-003,4.0524580866E-002,Pass,Pass
 Warmup Convergence Information,THERMAL ZONE 12,SizingPeriod: PIACENZA ANN HTG 99.6% CONDNS DB,2.2130445624E-014,9.7798458920E-014,Pass,Pass,1.1302671654E-003,7.7515947534E-003,Pass,Pass
 Warmup Convergence Information,THERMAL ZONE 13,SizingPeriod: PIACENZA ANN HTG 99.6% CONDNS DB,6.1765407603E-014,8.2741133224E-014,Pass,Pass,4.3985697647E-003,3.0322310057E-002,Pass,Pass
 Warmup Convergence Information,THERMAL ZONE 14,SizingPeriod: PIACENZA ANN HTG 99.6% CONDNS DB,4.8368716440E-014,4.4255800886E-014,Pass,Pass,6.7202039655E-003,4.6649779421E-002,Pass,Pass
 Warmup Convergence Information,THERMAL ZONE 15,SizingPeriod: PIACENZA ANN HTG 99.6% CONDNS DB,1.5250763615E-013,1.3162956483E-013,Pass,Pass,4.8197195012E-003,3.3261256038E-002,Pass,Pass
 Warmup Convergence Information,THERMAL ZONE 2,SizingPeriod: PIACENZA ANN HTG 99.6% CONDNS DB,1.3085828717E-013,1.8527741510E-013,Pass,Pass,3.6404016434E-004,2.4957894918E-003,Pass,Pass
 Warmup Convergence Information,THERMAL ZONE 3,SizingPeriod: PIACENZA ANN HTG 99.6% CONDNS DB,7.9343938827E-014,7.7372978219E-014,Pass,Pass,2.5418537424E-003,1.7458626300E-002,Pass,Pass
 Warmup Convergence Information,THERMAL ZONE 4,SizingPeriod: PIACENZA ANN HTG 99.6% CONDNS DB,3.2418512319E-014,2.9112974844E-014,Pass,Pass,8.4237098155E-009,2.8555202934E-009,Pass,Pass
 Warmup Convergence Information,THERMAL ZONE 5,SizingPeriod: PIACENZA ANN HTG 99.6% CONDNS DB,9.1704421834E-014,1.0144603782E-013,Pass,Pass,3.4655461811E-003,2.3840845670E-002,Pass,Pass
 Warmup Convergence Information,THERMAL ZONE 6,SizingPeriod: PIACENZA ANN HTG 99.6% CONDNS DB,8.9261931180E-014,6.2550402674E-014,Pass,Pass,2.9897477315E-003,2.0549603887E-002,Pass,Pass
 Warmup Convergence Information,THERMAL ZONE 7,SizingPeriod: PIACENZA ANN HTG 99.6% CONDNS DB,1.6024218989E-014,7.3781195326E-014,Pass,Pass,3.6542372321E-004,2.5052757946E-003,Pass,Pass
 Warmup Convergence Information,THERMAL ZONE 8,SizingPeriod: PIACENZA ANN HTG 99.6% CONDNS DB,6.8870834961E-014,8.8066178246E-014,Pass,Pass,2.5222063082E-003,1.7323203754E-002,Pass,Pass
 Warmup Convergence Information,THERMAL ZONE 9,SizingPeriod: PIACENZA ANN HTG 99.6% CONDNS DB,3.1160259558E-014,3.6294087076E-014,Pass,Pass,1.5215646643E-008,5.3848734496E-009,Pass,Pass
Environment,PIACENZA ANN HTG WIND 99.6% CONDNS WS=>MCDB,SizingPeriod:DesignDay,01/21,01/21,WinterDesignDay,1,N/A,N/A,N/A,N/A,N/A,N/A
Environment:Daylight Saving,No,SizingPeriod:DesignDay
Environment:Design Day Data,5.80,0.00,DefaultMultipliers,99726,250,8.9,0.00,No,No
Environment:Design_Day_Misc, 21,1229.0,0.1415,5.7310E-002,1.0,-11.15,-20.1,ASHRAEClearSky
Environment:WarmupDays,  6
 Warmup Convergence Information,THERMAL ZONE 1,SizingPeriod: PIACENZA ANN HTG WIND 99.6% CONDNS WS=>MCDB,6.9981057986E-014,6.3979924483E-014,Pass,Pass,2.4871051312E-003,1.7081478285E-002,Pass,Pass
 Warmup Convergence Information,THERMAL ZONE 10,SizingPeriod: PIACENZA ANN HTG WIND 99.6% CONDNS WS=>MCDB,1.1583326890E-013,1.1041249691E-013,Pass,Pass,2.6573360785E-003,1.8255243764E-002,Pass,Pass
 Warmup Convergence Information,THERMAL ZONE 11,SizingPeriod: PIACENZA ANN HTG WIND 99.6% CONDNS WS=>MCDB,9.2962674595E-014,9.5393651769E-014,Pass,Pass,5.1786515082E-003,3.5773712631E-002,Pass,Pass
 Warmup Convergence Information,THERMAL ZONE 12,SizingPeriod: PIACENZA ANN HTG WIND 99.6% CONDNS WS=>MCDB,1.9625042332E-013,1.8238807089E-013,Pass,Pass,1.1037047143E-003,7.5693215190E-003,Pass,Pass
 Warmup Convergence Information,THERMAL ZONE 13,SizingPeriod: PIACENZA ANN HTG WIND 99.6% CONDNS WS=>MCDB,7.4051875742E-014,8.0300904858E-014,Pass,Pass,3.8899352654E-003,2.6784447399E-002,Pass,Pass
 Warmup Convergence Information,THERMAL ZONE 14,SizingPeriod: PIACENZA ANN HTG WIND 99.6% CONDNS WS=>MCDB,5.2254497026E-014,4.4361279198E-014,Pass,Pass,6.4919186508E-003,4.5029701108E-002,Pass,Pass
 Warmup Convergence Information,THERMAL ZONE 15,SizingPeriod: PIACENZA ANN HTG WIND 99.6% CONDNS WS=>MCDB,1.5594932753E-013,1.2559324326E-013,Pass,Pass,4.2370359834E-003,2.9197536959E-002,Pass,Pass
 Warmup Convergence Information,THERMAL ZONE 2,SizingPeriod: PIACENZA ANN HTG WIND 99.6% CONDNS WS=>MCDB,1.4147942077E-013,1.7409580517E-013,Pass,Pass,3.4867165954E-004,2.3904533424E-003,Pass,Pass
 Warmup Convergence Information,THERMAL ZONE 3,SizingPeriod: PIACENZA ANN HTG WIND 99.6% CONDNS WS=>MCDB,6.7168492990E-014,8.7486067458E-014,Pass,Pass,2.0773095601E-003,1.4259265795E-002,Pass,Pass
 Warmup Convergence Information,THERMAL ZONE 4,SizingPeriod: PIACENZA ANN HTG WIND 99.6% CONDNS WS=>MCDB,4.0597155267E-014,4.1771918969E-014,Pass,Pass,1.1504242678E-009,5.9988809244E-010,Pass,Pass
 Warmup Convergence Information,THERMAL ZONE 5,SizingPeriod: PIACENZA ANN HTG WIND 99.6% CONDNS WS=>MCDB,1.2345680034E-013,9.7063720262E-014,Pass,Pass,2.8763109047E-003,1.9766435239E-002,Pass,Pass
 Warmup Convergence Information,THERMAL ZONE 6,SizingPeriod: PIACENZA ANN HTG WIND 99.6% CONDNS WS=>MCDB,5.8101671622E-014,5.8901653482E-014,Pass,Pass,2.4985402286E-003,1.7160296825E-002,Pass,Pass
 Warmup Convergence Information,THERMAL ZONE 7,SizingPeriod: PIACENZA ANN HTG WIND 99.6% CONDNS WS=>MCDB,2.0787075764E-013,1.9329259899E-013,Pass,Pass,3.5501053367E-004,2.4339150400E-003,Pass,Pass
 Warmup Convergence Information,THERMAL ZONE 8,SizingPeriod: PIACENZA ANN HTG WIND 99.6% CONDNS WS=>MCDB,6.7131485556E-014,7.7944895813E-014,Pass,Pass,2.1523234473E-003,1.4775547456E-002,Pass,Pass
 Warmup Convergence Information,THERMAL ZONE 9,SizingPeriod: PIACENZA ANN HTG WIND 99.6% CONDNS WS=>MCDB,2.2463512532E-014,2.5285774541E-014,Pass,Pass,3.1355703035E-009,1.7737859463E-009,Pass,Pass
Environment,PIACENZA ANN HUM_N 99.6% CONDNS DP=>MCDB,SizingPeriod:DesignDay,01/21,01/21,WinterDesignDay,1,N/A,N/A,N/A,N/A,N/A,N/A
Environment:Daylight Saving,No,SizingPeriod:DesignDay
Environment:Design Day Data,3.50,0.00,DefaultMultipliers,99726,250,2.0,0.00,No,No
Environment:Design_Day_Misc, 21,1229.0,0.1415,5.7310E-002,1.0,-11.15,-20.1,ASHRAEClearSky
Environment:WarmupDays,  6
 Warmup Convergence Information,THERMAL ZONE 1,SizingPeriod: PIACENZA ANN HUM_N 99.6% CONDNS DP=>MCDB,6.5614180755E-014,5.4885193973E-014,Pass,Pass,2.7781788659E-003,1.9088452184E-002,Pass,Pass
 Warmup Convergence Information,THERMAL ZONE 10,SizingPeriod: PIACENZA ANN HUM_N 99.6% CONDNS DP=>MCDB,8.0454161851E-014,7.9801037938E-014,Pass,Pass,2.9352690829E-003,2.0172994021E-002,Pass,Pass
 Warmup Convergence Information,THERMAL ZONE 11,SizingPeriod: PIACENZA ANN HUM_N 99.6% CONDNS DP=>MCDB,6.7945649107E-014,5.7993471452E-014,Pass,Pass,5.4853642676E-003,3.7925750504E-002,Pass,Pass
 Warmup Convergence Information,THERMAL ZONE 12,SizingPeriod: PIACENZA ANN HUM_N 99.6% CONDNS DP=>MCDB,1.4133139103E-013,1.1393198258E-013,Pass,Pass,1.1154226279E-003,7.6496780964E-003,Pass,Pass
 Warmup Convergence Information,THERMAL ZONE 13,SizingPeriod: PIACENZA ANN HUM_N 99.6% CONDNS DP=>MCDB,6.8537768054E-014,6.2142700069E-014,Pass,Pass,4.1563578306E-003,2.8635832027E-002,Pass,Pass
 Warmup Convergence Information,THERMAL ZONE 14,SizingPeriod: PIACENZA ANN HUM_N 99.6% CONDNS DP=>MCDB,4.5963233219E-014,3.2471445500E-014,Pass,Pass,6.2987603635E-003,4.3661464287E-002,Pass,Pass
 Warmup Convergence Information,THERMAL ZONE 15,SizingPeriod: PIACENZA ANN HUM_N 99.6% CONDNS DP=>MCDB,7.4236912913E-014,7.4824273087E-014,Pass,Pass,4.5477623038E-003,3.1362150609E-002,Pass,Pass
 Warmup Convergence Information,THERMAL ZONE 2,SizingPeriod: PIACENZA ANN HUM_N 99.6% CONDNS DP=>MCDB,1.2227256245E-013,9.8124847028E-014,Pass,Pass,3.5578461814E-004,2.4391461123E-003,Pass,Pass
 Warmup Convergence Information,THERMAL ZONE 3,SizingPeriod: PIACENZA ANN HUM_N 99.6% CONDNS DP=>MCDB,4.7961634664E-014,5.4343649818E-014,Pass,Pass,2.2992015255E-003,1.5786366029E-002,Pass,Pass
 Warmup Convergence Information,THERMAL ZONE 4,SizingPeriod: PIACENZA ANN HUM_N 99.6% CONDNS DP=>MCDB,2.7829590484E-014,3.3577634461E-014,Pass,Pass,1.5311824883E-008,5.4059972066E-009,Pass,Pass
 Warmup Convergence Information,THERMAL ZONE 5,SizingPeriod: PIACENZA ANN HUM_N 99.6% CONDNS DP=>MCDB,9.8254737679E-014,4.2297651683E-014,Pass,Pass,3.1788463449E-003,2.1856357055E-002,Pass,Pass
 Warmup Convergence Information,THERMAL ZONE 6,SizingPeriod: PIACENZA ANN HUM_N 99.6% CONDNS DP=>MCDB,6.1432340696E-014,4.4019125662E-014,Pass,Pass,2.7869281113E-003,1.9148800702E-002,Pass,Pass
 Warmup Convergence Information,THERMAL ZONE 7,SizingPeriod: PIACENZA ANN HUM_N 99.6% CONDNS DP=>MCDB,1.1376085259E-013,9.2222377407E-014,Pass,Pass,3.6150454261E-004,2.4783606982E-003,Pass,Pass
 Warmup Convergence Information,THERMAL ZONE 8,SizingPeriod: PIACENZA ANN HUM_N 99.6% CONDNS DP=>MCDB,5.8656783134E-014,5.4858937138E-014,Pass,Pass,2.3858284374E-003,1.6383100784E-002,Pass,Pass
 Warmup Convergence Information,THERMAL ZONE 9,SizingPeriod: PIACENZA ANN HUM_N 99.6% CONDNS DP=>MCDB,2.3240668649E-014,1.4905499282E-014,Pass,Pass,3.2101173412E-008,1.1764400387E-008,Pass,Pass
Environment,REYKJAVIK ANN CLG .4% CONDNS DB=>MWB,SizingPeriod:DesignDay,07/21,07/21,SummerDesignDay,1,N/A,N/A,N/A,N/A,N/A,N/A
Environment:Daylight Saving,No,SizingPeriod:DesignDay
Environment:Design Day Data,16.00,4.60,DefaultMultipliers,100594,0,5.2,0.00,No,No
Environment:Design_Day_Misc,202,1084.4,0.2082,0.1365,1.0,-6.23,20.6,ASHRAETau
Environment:WarmupDays,  6
 Warmup Convergence Information,THERMAL ZONE 1,SizingPeriod: REYKJAVIK ANN CLG .4% CONDNS DB=>MWB,4.0146964610E-002,4.7978125513E-002,Pass,Pass,4.5373403820E-002,0.1587169232,Pass,Pass
 Warmup Convergence Information,THERMAL ZONE 10,SizingPeriod: REYKJAVIK ANN CLG .4% CONDNS DB=>MWB,6.1257393971E-002,0.3792570870,Pass,Pass,7.7972337308E-002,0.3027431982,Pass,Pass
 Warmup Convergence Information,THERMAL ZONE 11,SizingPeriod: REYKJAVIK ANN CLG .4% CONDNS DB=>MWB,2.7614651315E-002,4.2098921057E-002,Pass,Pass,3.5698838745E-002,7.2103519535E-002,Pass,Pass
 Warmup Convergence Information,THERMAL ZONE 12,SizingPeriod: REYKJAVIK ANN CLG .4% CONDNS DB=>MWB,7.7725908386E-002,6.9934483765E-002,Pass,Pass,1.7749455077E-002,7.2640221551E-002,Pass,Pass
 Warmup Convergence Information,THERMAL ZONE 13,SizingPeriod: REYKJAVIK ANN CLG .4% CONDNS DB=>MWB,7.9151986456E-002,4.7801944485E-002,Pass,Pass,0.0000000000,0.0000000000,Pass,Pass
 Warmup Convergence Information,THERMAL ZONE 14,SizingPeriod: REYKJAVIK ANN CLG .4% CONDNS DB=>MWB,4.8065049175E-002,5.7716496573E-002,Pass,Pass,2.9887449255E-002,9.2893441702E-002,Pass,Pass
 Warmup Convergence Information,THERMAL ZONE 15,SizingPeriod: REYKJAVIK ANN CLG .4% CONDNS DB=>MWB,6.2562599264E-002,0.3821075654,Pass,Pass,9.6424474604E-002,0.3891710107,Pass,Pass
 Warmup Convergence Information,THERMAL ZONE 2,SizingPeriod: REYKJAVIK ANN CLG .4% CONDNS DB=>MWB,7.1872883957E-002,6.9121343940E-002,Pass,Pass,2.2829642388E-002,7.0154916406E-002,Pass,Pass
 Warmup Convergence Information,THERMAL ZONE 3,SizingPeriod: REYKJAVIK ANN CLG .4% CONDNS DB=>MWB,6.8611657987E-002,5.1168569150E-002,Pass,Pass,0.0000000000,0.0000000000,Pass,Pass
 Warmup Convergence Information,THERMAL ZONE 4,SizingPeriod: REYKJAVIK ANN CLG .4% CONDNS DB=>MWB,2.1926844719E-002,1.4189310966E-002,Pass,Pass,0.0000000000,0.0000000000,Pass,Pass
 Warmup Convergence Information,THERMAL ZONE 5,SizingPeriod: REYKJAVIK ANN CLG .4% CONDNS DB=>MWB,6.6327264873E-002,0.3906872669,Pass,Pass,8.1911523390,78.9634696818,Pass,Pass
 Warmup Convergence Information,THERMAL ZONE 6,SizingPeriod: REYKJAVIK ANN CLG .4% CONDNS DB=>MWB,2.8224144430E-002,8.5254672319E-002,Pass,Pass,3.5575273596E-002,8.4060643633E-002,Pass,Pass
 Warmup Convergence Information,THERMAL ZONE 7,SizingPeriod: REYKJAVIK ANN CLG .4% CONDNS DB=>MWB,7.7653139068E-002,6.8968822024E-002,Pass,Pass,1.3168433962E-002,6.8502554133E-002,Pass,Pass
 Warmup Convergence Information,THERMAL ZONE 8,SizingPeriod: REYKJAVIK ANN CLG .4% CONDNS DB=>MWB,6.5384436198E-002,4.0643818019E-002,Pass,Pass,0.0000000000,0.0000000000,Pass,Pass
 Warmup Convergence Information,THERMAL ZONE 9,SizingPeriod: REYKJAVIK ANN CLG .4% CONDNS DB=>MWB,1.6867716375E-002,8.8282519287E-003,Pass,Pass,0.0000000000,0.0000000000,Pass,Pass
Environment,REYKJAVIK ANN CLG .4% CONDNS DP=>MDB,SizingPeriod:DesignDay,07/21,07/21,SummerDesignDay,1,N/A,N/A,N/A,N/A,N/A,N/A
Environment:Daylight Saving,No,SizingPeriod:DesignDay
Environment:Design Day Data,13.80,4.60,DefaultMultipliers,100594,0,5.2,0.00,No,No
Environment:Design_Day_Misc,202,1084.4,0.2082,0.1365,1.0,-6.23,20.6,ASHRAETau
Environment:WarmupDays,  6
 Warmup Convergence Information,THERMAL ZONE 1,SizingPeriod: REYKJAVIK ANN CLG .4% CONDNS DP=>MDB,5.4837794201E-002,4.8502444756E-002,Pass,Pass,0.0000000000,0.0000000000,Pass,Pass
 Warmup Convergence Information,THERMAL ZONE 10,SizingPeriod: REYKJAVIK ANN CLG .4% CONDNS DP=>MDB,8.1753375779E-002,0.4394580490,Pass,Pass,6.8403418785E-002,0.1467731047,Pass,Pass
 Warmup Convergence Information,THERMAL ZONE 11,SizingPeriod: REYKJAVIK ANN CLG .4% CONDNS DP=>MDB,5.1382227816E-002,4.2997865906E-002,Pass,Pass,6.7431893525E-002,0.2156701706,Pass,Pass
 Warmup Convergence Information,THERMAL ZONE 12,SizingPeriod: REYKJAVIK ANN CLG .4% CONDNS DP=>MDB,4.0893953110E-002,5.9853714285E-002,Pass,Pass,0.1233582188,0.6362301269,Pass,Pass
 Warmup Convergence Information,THERMAL ZONE 13,SizingPeriod: REYKJAVIK ANN CLG .4% CONDNS DP=>MDB,7.9963590510E-002,4.9352730189E-002,Pass,Pass,0.0000000000,0.0000000000,Pass,Pass
 Warmup Convergence Information,THERMAL ZONE 14,SizingPeriod: REYKJAVIK ANN CLG .4% CONDNS DP=>MDB,5.7100068309E-002,6.3207422923E-002,Pass,Pass,0.0000000000,0.0000000000,Pass,Pass
 Warmup Convergence Information,THERMAL ZONE 15,SizingPeriod: REYKJAVIK ANN CLG .4% CONDNS DP=>MDB,9.1174879412E-002,0.4499992386,Pass,Pass,7.3313841580E-002,0.1209123172,Pass,Pass
 Warmup Convergence Information,THERMAL ZONE 2,SizingPeriod: REYKJAVIK ANN CLG .4% CONDNS DP=>MDB,4.0081940330E-002,4.5766630358E-002,Pass,Pass,6.3826931105E-002,0.2450698340,Pass,Pass
 Warmup Convergence Information,THERMAL ZONE 3,SizingPeriod: REYKJAVIK ANN CLG .4% CONDNS DP=>MDB,6.7544482880E-002,5.2827887612E-002,Pass,Pass,0.0000000000,0.0000000000,Pass,Pass
 Warmup Convergence Information,THERMAL ZONE 4,SizingPeriod: REYKJAVIK ANN CLG .4% CONDNS DP=>MDB,2.2193030268E-002,1.4016169237E-002,Pass,Pass,0.0000000000,0.0000000000,Pass,Pass
 Warmup Convergence Information,THERMAL ZONE 5,SizingPeriod: REYKJAVIK ANN CLG .4% CONDNS DP=>MDB,9.7171688641E-002,0.4564034715,Pass,Pass,0.1285191383,0.3709633901,Pass,Pass
 Warmup Convergence Information,THERMAL ZONE 6,SizingPeriod: REYKJAVIK ANN CLG .4% CONDNS DP=>MDB,3.7037221849E-002,5.1955374240E-002,Pass,Pass,0.2082684381,1.3888822545,Pass,Pass
 Warmup Convergence Information,THERMAL ZONE 7,SizingPeriod: REYKJAVIK ANN CLG .4% CONDNS DP=>MDB,4.2303319333E-002,5.6623915153E-002,Pass,Pass,7.3580903393E-002,0.2659352980,Pass,Pass
 Warmup Convergence Information,THERMAL ZONE 8,SizingPeriod: REYKJAVIK ANN CLG .4% CONDNS DP=>MDB,6.5574769620E-002,4.0682569540E-002,Pass,Pass,0.0000000000,0.0000000000,Pass,Pass
 Warmup Convergence Information,THERMAL ZONE 9,SizingPeriod: REYKJAVIK ANN CLG .4% CONDNS DP=>MDB,1.7836453258E-002,9.5625826529E-003,Pass,Pass,0.0000000000,0.0000000000,Pass,Pass
Environment,REYKJAVIK ANN CLG .4% CONDNS ENTH=>MDB,SizingPeriod:DesignDay,07/21,07/21,SummerDesignDay,1,N/A,N/A,N/A,N/A,N/A,N/A
Environment:Daylight Saving,No,SizingPeriod:DesignDay
Environment:Design Day Data,14.90,4.60,DefaultMultipliers,100594,0,5.2,0.00,No,No
Environment:Design_Day_Misc,202,1084.4,0.2082,0.1365,1.0,-6.23,20.6,ASHRAETau
Environment:WarmupDays,  6
 Warmup Convergence Information,THERMAL ZONE 1,SizingPeriod: REYKJAVIK ANN CLG .4% CONDNS ENTH=>MDB,4.9689869478E-002,5.0233752946E-002,Pass,Pass,2.8761117883E-002,9.6011439187E-002,Pass,Pass
 Warmup Convergence Information,THERMAL ZONE 10,SizingPeriod: REYKJAVIK ANN CLG .4% CONDNS ENTH=>MDB,6.7373987639E-002,0.4031997422,Pass,Pass,9.5486620178E-002,0.3431256832,Pass,Pass
 Warmup Convergence Information,THERMAL ZONE 11,SizingPeriod: REYKJAVIK ANN CLG .4% CONDNS ENTH=>MDB,3.5698449991E-002,4.3259269654E-002,Pass,Pass,4.9717288756E-002,8.9084768742E-002,Pass,Pass
 Warmup Convergence Information,THERMAL ZONE 12,SizingPeriod: REYKJAVIK ANN CLG .4% CONDNS ENTH=>MDB,5.9300952978E-002,7.2167344713E-002,Pass,Pass,0.1081453919,0.5804545578,Pass,Pass
 Warmup Convergence Information,THERMAL ZONE 13,SizingPeriod: REYKJAVIK ANN CLG .4% CONDNS ENTH=>MDB,7.9879489609E-002,4.8228138053E-002,Pass,Pass,0.0000000000,0.0000000000,Pass,Pass
 Warmup Convergence Information,THERMAL ZONE 14,SizingPeriod: REYKJAVIK ANN CLG .4% CONDNS ENTH=>MDB,5.5706280542E-002,6.2572139488E-002,Pass,Pass,0.0000000000,0.0000000000,Pass,Pass
 Warmup Convergence Information,THERMAL ZONE 15,SizingPeriod: REYKJAVIK ANN CLG .4% CONDNS ENTH=>MDB,7.0518029983E-002,0.4143688825,Pass,Pass,0.2153336114,1.2573986358,Pass,Pass
 Warmup Convergence Information,THERMAL ZONE 2,SizingPeriod: REYKJAVIK ANN CLG .4% CONDNS ENTH=>MDB,5.5780523673E-002,7.0585977513E-002,Pass,Pass,5.4186936849E-002,0.2321635916,Pass,Pass
 Warmup Convergence Information,THERMAL ZONE 3,SizingPeriod: REYKJAVIK ANN CLG .4% CONDNS ENTH=>MDB,6.8532044692E-002,5.1867935429E-002,Pass,Pass,0.0000000000,0.0000000000,Pass,Pass
 Warmup Convergence Information,THERMAL ZONE 4,SizingPeriod: REYKJAVIK ANN CLG .4% CONDNS ENTH=>MDB,2.2338912325E-002,1.4263503911E-002,Pass,Pass,0.0000000000,0.0000000000,Pass,Pass
 Warmup Convergence Information,THERMAL ZONE 5,SizingPeriod: REYKJAVIK ANN CLG .4% CONDNS ENTH=>MDB,7.8226127668E-002,0.4216717231,Pass,Pass,6.4495249795E-002,0.1066824334,Pass,Pass
 Warmup Convergence Information,THERMAL ZONE 6,SizingPeriod: REYKJAVIK ANN CLG .4% CONDNS ENTH=>MDB,2.9287067521E-002,5.5302679755E-002,Pass,Pass,4.5410884540E-002,8.2302218754E-002,Pass,Pass
 Warmup Convergence Information,THERMAL ZONE 7,SizingPeriod: REYKJAVIK ANN CLG .4% CONDNS ENTH=>MDB,5.9806835606E-002,6.7408197860E-002,Pass,Pass,8.5144805308E-002,0.4974402234,Pass,Pass
 Warmup Convergence Information,THERMAL ZONE 8,SizingPeriod: REYKJAVIK ANN CLG .4% CONDNS ENTH=>MDB,6.5684599332E-002,4.0482219963E-002,Pass,Pass,0.0000000000,0.0000000000,Pass,Pass
 Warmup Convergence Information,THERMAL ZONE 9,SizingPeriod: REYKJAVIK ANN CLG .4% CONDNS ENTH=>MDB,1.7356811529E-002,9.3118712533E-003,Pass,Pass,0.0000000000,0.0000000000,Pass,Pass
Environment,REYKJAVIK ANN CLG .4% CONDNS WB=>MDB,SizingPeriod:DesignDay,07/21,07/21,SummerDesignDay,1,N/A,N/A,N/A,N/A,N/A,N/A
Environment:Daylight Saving,No,SizingPeriod:DesignDay
Environment:Design Day Data,15.00,4.60,DefaultMultipliers,100594,0,5.2,0.00,No,No
Environment:Design_Day_Misc,202,1084.4,0.2082,0.1365,1.0,-6.23,20.6,ASHRAETau
Environment:WarmupDays,  6
 Warmup Convergence Information,THERMAL ZONE 1,SizingPeriod: REYKJAVIK ANN CLG .4% CONDNS WB=>MDB,4.8814119415E-002,5.0161043698E-002,Pass,Pass,7.3589491773E-002,0.4627442207,Pass,Pass
 Warmup Convergence Information,THERMAL ZONE 10,SizingPeriod: REYKJAVIK ANN CLG .4% CONDNS WB=>MDB,6.6620646224E-002,0.4000524782,Pass,Pass,2.5422924855,23.9193023380,Pass,Pass
 Warmup Convergence Information,THERMAL ZONE 11,SizingPeriod: REYKJAVIK ANN CLG .4% CONDNS WB=>MDB,3.4803405459E-002,4.2991305867E-002,Pass,Pass,4.7797488443E-002,0.1069647293,Pass,Pass
 Warmup Convergence Information,THERMAL ZONE 12,SizingPeriod: REYKJAVIK ANN CLG .4% CONDNS WB=>MDB,6.0901282245E-002,7.2141394356E-002,Pass,Pass,6.1866190693E-002,0.2997077014,Pass,Pass
 Warmup Convergence Information,THERMAL ZONE 13,SizingPeriod: REYKJAVIK ANN CLG .4% CONDNS WB=>MDB,7.9692522143E-002,4.8173269149E-002,Pass,Pass,0.0000000000,0.0000000000,Pass,Pass
 Warmup Convergence Information,THERMAL ZONE 14,SizingPeriod: REYKJAVIK ANN CLG .4% CONDNS WB=>MDB,5.5519775562E-002,6.2160994354E-002,Pass,Pass,0.0000000000,0.0000000000,Pass,Pass
 Warmup Convergence Information,THERMAL ZONE 15,SizingPeriod: REYKJAVIK ANN CLG .4% CONDNS WB=>MDB,6.9745096909E-002,0.4111811946,Pass,Pass,0.1461011023,0.6829863029,Pass,Pass
 Warmup Convergence Information,THERMAL ZONE 2,SizingPeriod: REYKJAVIK ANN CLG .4% CONDNS WB=>MDB,5.7168914430E-002,7.0784550150E-002,Pass,Pass,6.3576845029E-002,0.2739084865,Pass,Pass
 Warmup Convergence Information,THERMAL ZONE 3,SizingPeriod: REYKJAVIK ANN CLG .4% CONDNS WB=>MDB,6.8414013861E-002,5.1768811609E-002,Pass,Pass,0.0000000000,0.0000000000,Pass,Pass
 Warmup Convergence Information,THERMAL ZONE 4,SizingPeriod: REYKJAVIK ANN CLG .4% CONDNS WB=>MDB,2.2298617944E-002,1.4265310030E-002,Pass,Pass,0.0000000000,0.0000000000,Pass,Pass
 Warmup Convergence Information,THERMAL ZONE 5,SizingPeriod: REYKJAVIK ANN CLG .4% CONDNS WB=>MDB,7.6918428336E-002,0.4189310412,Pass,Pass,6.2455797806E-002,9.6716406620E-002,Pass,Pass
 Warmup Convergence Information,THERMAL ZONE 6,SizingPeriod: REYKJAVIK ANN CLG .4% CONDNS WB=>MDB,2.8901618881E-002,5.6326808516E-002,Pass,Pass,4.4234618168E-002,0.1056758222,Pass,Pass
 Warmup Convergence Information,THERMAL ZONE 7,SizingPeriod: REYKJAVIK ANN CLG .4% CONDNS WB=>MDB,6.1358738820E-002,6.7322262391E-002,Pass,Pass,0.2453073098,1.4456033884,Pass,Pass
[...]
 Warmup Convergence Information,THERMAL ZONE 4,SizingPeriod: SINGAPORE ANN CLG .4% CONDNS DP=>MDB,1.2856775793E-002,1.2394738539E-002,Pass,Pass,0.0000000000,0.0000000000,Pass,Pass
 Warmup Convergence Information,THERMAL ZONE 5,SizingPeriod: SINGAPORE ANN CLG .4% CONDNS DP=>MDB,5.6250000000E-002,0.3631191848,Pass,Pass,2.6872298297E-002,0.1130503179,Pass,Pass
 Warmup Convergence Information,THERMAL ZONE 6,SizingPeriod: SINGAPORE ANN CLG .4% CONDNS DP=>MDB,5.6700139425E-002,0.3428274517,Pass,Pass,4.5097041321E-002,0.1762203818,Pass,Pass
 Warmup Convergence Information,THERMAL ZONE 7,SizingPeriod: SINGAPORE ANN CLG .4% CONDNS DP=>MDB,4.5078352541E-002,0.2127415132,Pass,Pass,3.2698757879E-002,0.1292503361,Pass,Pass
 Warmup Convergence Information,THERMAL ZONE 8,SizingPeriod: SINGAPORE ANN CLG .4% CONDNS DP=>MDB,4.7164189762E-002,0.2478843340,Pass,Pass,6.1195594070E-002,0.3268633161,Pass,Pass
 Warmup Convergence Information,THERMAL ZONE 9,SizingPeriod: SINGAPORE ANN CLG .4% CONDNS DP=>MDB,6.3204787150E-002,0.3089502731,Pass,Pass,4.8802066051E-002,0.1807156822,Pass,Pass
Environment,SINGAPORE ANN CLG .4% CONDNS ENTH=>MDB,SizingPeriod:DesignDay,06/21,06/21,SummerDesignDay,1,N/A,N/A,N/A,N/A,N/A,N/A
Environment:Daylight Saving,No,SizingPeriod:DesignDay
Environment:Design Day Data,30.90,5.50,DefaultMultipliers,101133,30,4.1,0.00,No,No
Environment:Design_Day_Misc,172,1088.0,0.2039,0.1335,1.0,-1.34,23.4,ASHRAETau
Environment:WarmupDays,  6
 Warmup Convergence Information,THERMAL ZONE 1,SizingPeriod: SINGAPORE ANN CLG .4% CONDNS ENTH=>MDB,5.7848146689E-002,0.3169705472,Pass,Pass,9.1288075025E-002,0.3996274065,Pass,Pass
 Warmup Convergence Information,THERMAL ZONE 10,SizingPeriod: SINGAPORE ANN CLG .4% CONDNS ENTH=>MDB,5.6250000000E-002,0.3665754776,Pass,Pass,2.2126023316E-002,0.1009813712,Pass,Pass
 Warmup Convergence Information,THERMAL ZONE 11,SizingPeriod: SINGAPORE ANN CLG .4% CONDNS ENTH=>MDB,5.6486799922E-002,0.3502748217,Pass,Pass,3.5280020950E-002,0.1314129763,Pass,Pass
 Warmup Convergence Information,THERMAL ZONE 12,SizingPeriod: SINGAPORE ANN CLG .4% CONDNS ENTH=>MDB,5.7113085601E-002,0.3479405343,Pass,Pass,0.1669232092,0.6581479191,Pass,Pass
 Warmup Convergence Information,THERMAL ZONE 13,SizingPeriod: SINGAPORE ANN CLG .4% CONDNS ENTH=>MDB,5.8052141443E-002,0.3257208401,Pass,Pass,5.4217232032E-002,0.1631720298,Pass,Pass
 Warmup Convergence Information,THERMAL ZONE 14,SizingPeriod: SINGAPORE ANN CLG .4% CONDNS ENTH=>MDB,5.9725418658E-002,0.3255909269,Pass,Pass,0.1050955972,0.6367606267,Pass,Pass
 Warmup Convergence Information,THERMAL ZONE 15,SizingPeriod: SINGAPORE ANN CLG .4% CONDNS ENTH=>MDB,5.6250000000E-002,0.3669774270,Pass,Pass,2.2400791168E-002,9.8225118002E-002,Pass,Pass
 Warmup Convergence Information,THERMAL ZONE 2,SizingPeriod: SINGAPORE ANN CLG .4% CONDNS ENTH=>MDB,3.2936155129E-002,0.1594844037,Pass,Pass,3.4834060779E-002,0.1291468166,Pass,Pass
 Warmup Convergence Information,THERMAL ZONE 3,SizingPeriod: SINGAPORE ANN CLG .4% CONDNS ENTH=>MDB,6.2446661046E-003,1.6427466804E-002,Pass,Pass,4.8433252143E-002,9.0894552925E-002,Pass,Pass
 Warmup Convergence Information,THERMAL ZONE 4,SizingPeriod: SINGAPORE ANN CLG .4% CONDNS ENTH=>MDB,1.0368266665E-002,1.3210206338E-002,Pass,Pass,4.8932595513E-002,0.1778809706,Pass,Pass
 Warmup Convergence Information,THERMAL ZONE 5,SizingPeriod: SINGAPORE ANN CLG .4% CONDNS ENTH=>MDB,5.6250000000E-002,0.3638548237,Pass,Pass,2.7230525222E-002,0.1196270779,Pass,Pass
 Warmup Convergence Information,THERMAL ZONE 6,SizingPeriod: SINGAPORE ANN CLG .4% CONDNS ENTH=>MDB,5.6488330996E-002,0.3446626811,Pass,Pass,4.0218765102E-002,0.1526258244,Pass,Pass
 Warmup Convergence Information,THERMAL ZONE 7,SizingPeriod: SINGAPORE ANN CLG .4% CONDNS ENTH=>MDB,5.7306903642E-002,0.3257745235,Pass,Pass,0.3176460288,2.2712908626,Pass,Pass
 Warmup Convergence Information,THERMAL ZONE 8,SizingPeriod: SINGAPORE ANN CLG .4% CONDNS ENTH=>MDB,5.8132699756E-002,0.3101454011,Pass,Pass,0.1336491899,0.5986175035,Pass,Pass
 Warmup Convergence Information,THERMAL ZONE 9,SizingPeriod: SINGAPORE ANN CLG .4% CONDNS ENTH=>MDB,6.1178508444E-002,0.3098641978,Pass,Pass,4.9850751660E-002,0.1696350396,Pass,Pass
Environment,SINGAPORE ANN CLG .4% CONDNS WB=>MDB,SizingPeriod:DesignDay,06/21,06/21,SummerDesignDay,1,N/A,N/A,N/A,N/A,N/A,N/A
Environment:Daylight Saving,No,SizingPeriod:DesignDay
Environment:Design Day Data,30.70,5.50,DefaultMultipliers,101133,30,4.1,0.00,No,No
Environment:Design_Day_Misc,172,1088.0,0.2039,0.1335,1.0,-1.34,23.4,ASHRAETau
Environment:WarmupDays,  6
 Warmup Convergence Information,THERMAL ZONE 1,SizingPeriod: SINGAPORE ANN CLG .4% CONDNS WB=>MDB,5.7892911704E-002,0.3160879347,Pass,Pass,9.0646803338E-002,0.4122106109,Pass,Pass
 Warmup Convergence Information,THERMAL ZONE 10,SizingPeriod: SINGAPORE ANN CLG .4% CONDNS WB=>MDB,5.6250000000E-002,0.3665586440,Pass,Pass,2.2141210888E-002,0.1002518316,Pass,Pass
 Warmup Convergence Information,THERMAL ZONE 11,SizingPeriod: SINGAPORE ANN CLG .4% CONDNS WB=>MDB,5.6508442157E-002,0.3498572084,Pass,Pass,3.6117443310E-002,0.1340633517,Pass,Pass
 Warmup Convergence Information,THERMAL ZONE 12,SizingPeriod: SINGAPORE ANN CLG .4% CONDNS WB=>MDB,5.7139868502E-002,0.3345067667,Pass,Pass,0.1671395874,0.8337914864,Pass,Pass
 Warmup Convergence Information,THERMAL ZONE 13,SizingPeriod: SINGAPORE ANN CLG .4% CONDNS WB=>MDB,5.8069699234E-002,0.3239851632,Pass,Pass,5.7989161510E-002,0.1778894525,Pass,Pass
 Warmup Convergence Information,THERMAL ZONE 14,SizingPeriod: SINGAPORE ANN CLG .4% CONDNS WB=>MDB,5.9738902402E-002,0.3248645745,Pass,Pass,0.1168674773,0.7480385730,Pass,Pass
 Warmup Convergence Information,THERMAL ZONE 15,SizingPeriod: SINGAPORE ANN CLG .4% CONDNS WB=>MDB,5.6250000000E-002,0.3669466313,Pass,Pass,2.2356542941E-002,9.7939571571E-002,Pass,Pass
 Warmup Convergence Information,THERMAL ZONE 2,SizingPeriod: SINGAPORE ANN CLG .4% CONDNS WB=>MDB,3.0625230082E-002,0.1452872598,Pass,Pass,3.4819191156E-002,0.1258551987,Pass,Pass
 Warmup Convergence Information,THERMAL ZONE 3,SizingPeriod: SINGAPORE ANN CLG .4% CONDNS WB=>MDB,6.7378676141E-003,1.7086363398E-002,Pass,Pass,5.2280700052E-002,9.6375765061E-002,Pass,Pass
 Warmup Convergence Information,THERMAL ZONE 4,SizingPeriod: SINGAPORE ANN CLG .4% CONDNS WB=>MDB,1.0899348129E-002,1.3190230275E-002,Pass,Pass,7.3448965579E-002,0.3715181379,Pass,Pass
 Warmup Convergence Information,THERMAL ZONE 5,SizingPeriod: SINGAPORE ANN CLG .4% CONDNS WB=>MDB,5.6250000000E-002,0.3637290116,Pass,Pass,2.7248531635E-002,0.1188547324,Pass,Pass
 Warmup Convergence Information,THERMAL ZONE 6,SizingPeriod: SINGAPORE ANN CLG .4% CONDNS WB=>MDB,5.6499178290E-002,0.3442666810,Pass,Pass,4.1298327557E-002,0.1566550885,Pass,Pass
 Warmup Convergence Information,THERMAL ZONE 7,SizingPeriod: SINGAPORE ANN CLG .4% CONDNS WB=>MDB,5.7276189769E-002,0.3107175108,Pass,Pass,0.8829117614,6.4664668036,Pass,Pass
 Warmup Convergence Information,THERMAL ZONE 8,SizingPeriod: SINGAPORE ANN CLG .4% CONDNS WB=>MDB,5.6780362220E-002,0.3017414129,Pass,Pass,5.5641085098E-002,0.2767959208,Pass,Pass
 Warmup Convergence Information,THERMAL ZONE 9,SizingPeriod: SINGAPORE ANN CLG .4% CONDNS WB=>MDB,6.1462660048E-002,0.3096431051,Pass,Pass,4.9515554386E-002,0.1654173375,Pass,Pass
Environment,SINGAPORE ANN HTG 99.6% CONDNS DB,SizingPeriod:DesignDay,12/21,12/21,WinterDesignDay,1,N/A,N/A,N/A,N/A,N/A,N/A
Environment:Daylight Saving,No,SizingPeriod:DesignDay
Environment:Design Day Data,23.00,0.00,DefaultMultipliers,101133,320,2.0,0.00,No,No
Environment:Design_Day_Misc,355,1232.8,0.1424,5.7719E-002,1.0,2.45,-23.5,ASHRAEClearSky
Environment:WarmupDays,  6
 Warmup Convergence Information,THERMAL ZONE 1,SizingPeriod: SINGAPORE ANN HTG 99.6% CONDNS DB,1.7060427145E-014,1.4133109548E-014,Pass,Pass,1.9511878812E-003,1.2768466377E-002,Pass,Pass
 Warmup Convergence Information,THERMAL ZONE 10,SizingPeriod: SINGAPORE ANN HTG 99.6% CONDNS DB,4.8459490484E-003,1.3145461979E-002,Pass,Pass,0.0000000000,0.0000000000,Pass,Pass
 Warmup Convergence Information,THERMAL ZONE 11,SizingPeriod: SINGAPORE ANN HTG 99.6% CONDNS DB,6.3018243814E-003,1.6078245440E-002,Pass,Pass,0.0000000000,0.0000000000,Pass,Pass
 Warmup Convergence Information,THERMAL ZONE 12,SizingPeriod: SINGAPORE ANN HTG 99.6% CONDNS DB,6.7123631549E-004,1.6715835264E-003,Pass,Pass,0.0000000000,0.0000000000,Pass,Pass
 Warmup Convergence Information,THERMAL ZONE 13,SizingPeriod: SINGAPORE ANN HTG 99.6% CONDNS DB,3.6759855409E-003,1.0122773020E-002,Pass,Pass,0.0000000000,0.0000000000,Pass,Pass
 Warmup Convergence Information,THERMAL ZONE 14,SizingPeriod: SINGAPORE ANN HTG 99.6% CONDNS DB,3.5189101951E-003,8.4615099467E-003,Pass,Pass,0.0000000000,0.0000000000,Pass,Pass
 Warmup Convergence Information,THERMAL ZONE 15,SizingPeriod: SINGAPORE ANN HTG 99.6% CONDNS DB,6.9902294917E-003,1.9227363638E-002,Pass,Pass,0.0000000000,0.0000000000,Pass,Pass
 Warmup Convergence Information,THERMAL ZONE 2,SizingPeriod: SINGAPORE ANN HTG 99.6% CONDNS DB,3.1960261527E-004,1.2815916280E-003,Pass,Pass,0.0000000000,0.0000000000,Pass,Pass
 Warmup Convergence Information,THERMAL ZONE 3,SizingPeriod: SINGAPORE ANN HTG 99.6% CONDNS DB,1.3026616822E-014,1.2120372552E-014,Pass,Pass,2.6134024136E-003,1.7359283371E-002,Pass,Pass
 Warmup Convergence Information,THERMAL ZONE 4,SizingPeriod: SINGAPORE ANN HTG 99.6% CONDNS DB,1.3433698598E-014,1.3245508184E-014,Pass,Pass,1.9375144596E-005,1.3147070184E-005,Pass,Pass
 Warmup Convergence Information,THERMAL ZONE 5,SizingPeriod: SINGAPORE ANN HTG 99.6% CONDNS DB,1.2952601954E-014,9.7021607467E-015,Pass,Pass,5.0016766846E-003,3.3195926887E-002,Pass,Pass
 Warmup Convergence Information,THERMAL ZONE 6,SizingPeriod: SINGAPORE ANN HTG 99.6% CONDNS DB,3.2407592467E-003,8.1340828422E-003,Pass,Pass,0.0000000000,0.0000000000,Pass,Pass
 Warmup Convergence Information,THERMAL ZONE 7,SizingPeriod: SINGAPORE ANN HTG 99.6% CONDNS DB,2.3755942961E-004,5.8942571544E-004,Pass,Pass,0.0000000000,0.0000000000,Pass,Pass
 Warmup Convergence Information,THERMAL ZONE 8,SizingPeriod: SINGAPORE ANN HTG 99.6% CONDNS DB,2.0036336499E-003,5.9011178569E-003,Pass,Pass,0.0000000000,0.0000000000,Pass,Pass
 Warmup Convergence Information,THERMAL ZONE 9,SizingPeriod: SINGAPORE ANN HTG 99.6% CONDNS DB,2.6087745203E-004,7.2976922169E-005,Pass,Pass,0.0000000000,0.0000000000,Pass,Pass
Environment,SINGAPORE ANN HTG WIND 99.6% CONDNS WS=>MCDB,SizingPeriod:DesignDay,12/21,12/21,WinterDesignDay,1,N/A,N/A,N/A,N/A,N/A,N/A
Environment:Daylight Saving,No,SizingPeriod:DesignDay
Environment:Design Day Data,28.00,0.00,DefaultMultipliers,101133,320,8.3,0.00,No,No
Environment:Design_Day_Misc,355,1232.8,0.1424,5.7719E-002,1.0,2.45,-23.5,ASHRAEClearSky
Environment:WarmupDays,  6
 Warmup Convergence Information,THERMAL ZONE 1,SizingPeriod: SINGAPORE ANN HTG WIND 99.6% CONDNS WS=>MCDB,7.6352431363E-003,2.2353143052E-002,Pass,Pass,0.0000000000,0.0000000000,Pass,Pass
 Warmup Convergence Information,THERMAL ZONE 10,SizingPeriod: SINGAPORE ANN HTG WIND 99.6% CONDNS WS=>MCDB,4.2083075149E-003,1.1598074070E-002,Pass,Pass,0.0000000000,0.0000000000,Pass,Pass
 Warmup Convergence Information,THERMAL ZONE 11,SizingPeriod: SINGAPORE ANN HTG WIND 99.6% CONDNS WS=>MCDB,3.7896053501E-003,1.1893787200E-002,Pass,Pass,2.9601455816E-002,9.4812626682E-002,Pass,Pass
 Warmup Convergence Information,THERMAL ZONE 12,SizingPeriod: SINGAPORE ANN HTG WIND 99.6% CONDNS WS=>MCDB,2.7015426933E-015,2.4987555468E-015,Pass,Pass,1.6195302221E-003,9.7167367849E-003,Pass,Pass
 Warmup Convergence Information,THERMAL ZONE 13,SizingPeriod: SINGAPORE ANN HTG WIND 99.6% CONDNS WS=>MCDB,3.3862110621E-004,1.6412887828E-003,Pass,Pass,1.3156969490,12.5022015842,Pass,Pass
 Warmup Convergence Information,THERMAL ZONE 14,SizingPeriod: SINGAPORE ANN HTG WIND 99.6% CONDNS WS=>MCDB,3.6901869912E-003,9.4756619484E-003,Pass,Pass,0.0000000000,0.0000000000,Pass,Pass
 Warmup Convergence Information,THERMAL ZONE 15,SizingPeriod: SINGAPORE ANN HTG WIND 99.6% CONDNS WS=>MCDB,5.9581968988E-015,4.7965689319E-015,Pass,Pass,2.4277142995E-002,0.1812354712,Pass,Pass
 Warmup Convergence Information,THERMAL ZONE 2,SizingPeriod: SINGAPORE ANN HTG WIND 99.6% CONDNS WS=>MCDB,8.8425544598E-004,2.4944631567E-003,Pass,Pass,0.0000000000,0.0000000000,Pass,Pass
 Warmup Convergence Information,THERMAL ZONE 3,SizingPeriod: SINGAPORE ANN HTG WIND 99.6% CONDNS WS=>MCDB,5.3624793195E-003,1.6809264918E-002,Pass,Pass,0.0000000000,0.0000000000,Pass,Pass
 Warmup Convergence Information,THERMAL ZONE 4,SizingPeriod: SINGAPORE ANN HTG WIND 99.6% CONDNS WS=>MCDB,5.6380274222E-004,4.4820565456E-004,Pass,Pass,0.0000000000,0.0000000000,Pass,Pass
 Warmup Convergence Information,THERMAL ZONE 5,SizingPeriod: SINGAPORE ANN HTG WIND 99.6% CONDNS WS=>MCDB,9.0870784719E-003,2.9139438432E-002,Pass,Pass,0.0000000000,0.0000000000,Pass,Pass
 Warmup Convergence Information,THERMAL ZONE 6,SizingPeriod: SINGAPORE ANN HTG WIND 99.6% CONDNS WS=>MCDB,4.0676633997E-003,1.0316383133E-002,Pass,Pass,0.0000000000,0.0000000000,Pass,Pass
 Warmup Convergence Information,THERMAL ZONE 7,SizingPeriod: SINGAPORE ANN HTG WIND 99.6% CONDNS WS=>MCDB,3.0716170348E-015,2.6457080307E-015,Pass,Pass,1.2342128687E-003,5.9245717173E-003,Pass,Pass
 Warmup Convergence Information,THERMAL ZONE 8,SizingPeriod: SINGAPORE ANN HTG WIND 99.6% CONDNS WS=>MCDB,2.4438148065E-003,7.2465368991E-003,Pass,Pass,0.0000000000,0.0000000000,Pass,Pass
 Warmup Convergence Information,THERMAL ZONE 9,SizingPeriod: SINGAPORE ANN HTG WIND 99.6% CONDNS WS=>MCDB,3.6351143284E-004,9.9492284639E-005,Pass,Pass,0.0000000000,0.0000000000,Pass,Pass
Environment,SINGAPORE ANN HUM_N 99.6% CONDNS DP=>MCDB,SizingPeriod:DesignDay,12/21,12/21,WinterDesignDay,1,N/A,N/A,N/A,N/A,N/A,N/A
Environment:Daylight Saving,No,SizingPeriod:DesignDay
Environment:Design Day Data,28.40,0.00,DefaultMultipliers,101133,320,2.0,0.00,No,No
Environment:Design_Day_Misc,355,1232.8,0.1424,5.7719E-002,1.0,2.45,-23.5,ASHRAEClearSky
Environment:WarmupDays,  6
 Warmup Convergence Information,THERMAL ZONE 1,SizingPeriod: SINGAPORE ANN HUM_N 99.6% CONDNS DP=>MCDB,8.9524711923E-003,2.5643938172E-002,Pass,Pass,0.0000000000,0.0000000000,Pass,Pass
 Warmup Convergence Information,THERMAL ZONE 10,SizingPeriod: SINGAPORE ANN HUM_N 99.6% CONDNS DP=>MCDB,6.5693119164E-003,1.7311664601E-002,Pass,Pass,0.0000000000,0.0000000000,Pass,Pass
 Warmup Convergence Information,THERMAL ZONE 11,SizingPeriod: SINGAPORE ANN HUM_N 99.6% CONDNS DP=>MCDB,8.1115065182E-003,2.1014163994E-002,Pass,Pass,0.0000000000,0.0000000000,Pass,Pass
 Warmup Convergence Information,THERMAL ZONE 12,SizingPeriod: SINGAPORE ANN HUM_N 99.6% CONDNS DP=>MCDB,2.9642954757E-014,2.3188251089E-014,Pass,Pass,2.1423414819E-003,1.1380313303E-002,Pass,Pass
 Warmup Convergence Information,THERMAL ZONE 13,SizingPeriod: SINGAPORE ANN HUM_N 99.6% CONDNS DP=>MCDB,5.0698593622E-003,1.3916406459E-002,Pass,Pass,0.0000000000,0.0000000000,Pass,Pass
 Warmup Convergence Information,THERMAL ZONE 14,SizingPeriod: SINGAPORE ANN HUM_N 99.6% CONDNS DP=>MCDB,5.4124394947E-003,1.3227727990E-002,Pass,Pass,0.0000000000,0.0000000000,Pass,Pass
 Warmup Convergence Information,THERMAL ZONE 15,SizingPeriod: SINGAPORE ANN HUM_N 99.6% CONDNS DP=>MCDB,6.4151437536E-003,2.0455558371E-002,Pass,Pass,2.1919703898E-002,8.4976417044E-002,Pass,Pass
 Warmup Convergence Information,THERMAL ZONE 2,SizingPeriod: SINGAPORE ANN HUM_N 99.6% CONDNS DP=>MCDB,1.0043270590E-003,2.7258089175E-003,Pass,Pass,0.0000000000,0.0000000000,Pass,Pass
 Warmup Convergence Information,THERMAL ZONE 3,SizingPeriod: SINGAPORE ANN HUM_N 99.6% CONDNS DP=>MCDB,6.1823087424E-003,1.9001539723E-002,Pass,Pass,0.0000000000,0.0000000000,Pass,Pass
 Warmup Convergence Information,THERMAL ZONE 4,SizingPeriod: SINGAPORE ANN HUM_N 99.6% CONDNS DP=>MCDB,6.6421111609E-004,5.2223879025E-004,Pass,Pass,0.0000000000,0.0000000000,Pass,Pass
 Warmup Convergence Information,THERMAL ZONE 5,SizingPeriod: SINGAPORE ANN HUM_N 99.6% CONDNS DP=>MCDB,1.1224981658E-002,3.4963879865E-002,Pass,Pass,0.0000000000,0.0000000000,Pass,Pass
 Warmup Convergence Information,THERMAL ZONE 6,SizingPeriod: SINGAPORE ANN HUM_N 99.6% CONDNS DP=>MCDB,5.4068262822E-003,1.3455240790E-002,Pass,Pass,0.0000000000,0.0000000000,Pass,Pass
 Warmup Convergence Information,THERMAL ZONE 7,SizingPeriod: SINGAPORE ANN HUM_N 99.6% CONDNS DP=>MCDB,2.4868995752E-014,1.6906525407E-014,Pass,Pass,1.2684426655E-003,5.8519939960E-003,Pass,Pass
 Warmup Convergence Information,THERMAL ZONE 8,SizingPeriod: SINGAPORE ANN HUM_N 99.6% CONDNS DP=>MCDB,3.2962325386E-003,9.4153294445E-003,Pass,Pass,0.0000000000,0.0000000000,Pass,Pass
 Warmup Convergence Information,THERMAL ZONE 9,SizingPeriod: SINGAPORE ANN HUM_N 99.6% CONDNS DP=>MCDB,5.2434411255E-004,1.4860053115E-004,Pass,Pass,0.0000000000,0.0000000000,Pass,Pass
Environment,RUN PERIOD 1,WeatherFileRunPeriod,01/01,12/31,Sunday,365,Use RunPeriod Specified Day,No,No,No,Yes,Yes
Environment:Daylight Saving,No,RunPeriod Object
Environment:WarmupDays,  6
 Warmup Convergence Information,THERMAL ZONE 1,RunPeriod: RUN PERIOD 1,4.1716284186E-002,3.2748249351E-002,Pass,Pass,0.0000000000,0.0000000000,Pass,Pass
 Warmup Convergence Information,THERMAL ZONE 10,RunPeriod: RUN PERIOD 1,6.3023660365E-014,6.0364003264E-014,Pass,Pass,1.7197623151E-002,1.2283599470E-002,Pass,Pass
 Warmup Convergence Information,THERMAL ZONE 11,RunPeriod: RUN PERIOD 1,5.6463898114E-003,1.5685900191E-002,Pass,Pass,8.6141765548E-002,0.1527203116,Pass,Pass
 Warmup Convergence Information,THERMAL ZONE 12,RunPeriod: RUN PERIOD 1,6.7473963828E-002,7.0045922469E-002,Pass,Pass,0.4092659409,2.5477445338,Pass,Pass
 Warmup Convergence Information,THERMAL ZONE 13,RunPeriod: RUN PERIOD 1,2.7693820142E-002,3.5285730064E-002,Pass,Pass,0.4201640434,3.1336706757,Pass,Pass
 Warmup Convergence Information,THERMAL ZONE 14,RunPeriod: RUN PERIOD 1,2.8039713782E-002,2.5551292417E-002,Pass,Pass,5.6613861567E-002,0.2306495000,Pass,Pass
 Warmup Convergence Information,THERMAL ZONE 15,RunPeriod: RUN PERIOD 1,7.3644793967E-014,5.5058655121E-014,Pass,Pass,2.0674390163E-002,1.3392759071E-002,Pass,Pass
 Warmup Convergence Information,THERMAL ZONE 2,RunPeriod: RUN PERIOD 1,8.1452842024E-002,5.9661756321E-002,Pass,Pass,0.0000000000,0.0000000000,Pass,Pass
 Warmup Convergence Information,THERMAL ZONE 3,RunPeriod: RUN PERIOD 1,4.6660900312E-002,3.3328057911E-002,Pass,Pass,0.0000000000,0.0000000000,Pass,Pass
 Warmup Convergence Information,THERMAL ZONE 4,RunPeriod: RUN PERIOD 1,1.5879308823E-002,1.0741124633E-002,Pass,Pass,0.0000000000,0.0000000000,Pass,Pass
 Warmup Convergence Information,THERMAL ZONE 5,RunPeriod: RUN PERIOD 1,1.9919288222E-002,3.7494372938E-002,Pass,Pass,0.1073569796,0.3737004260,Pass,Pass
 Warmup Convergence Information,THERMAL ZONE 6,RunPeriod: RUN PERIOD 1,1.6972931791E-002,2.6496671205E-002,Pass,Pass,9.4858966844E-002,0.3413998863,Pass,Pass
 Warmup Convergence Information,THERMAL ZONE 7,RunPeriod: RUN PERIOD 1,8.3007709464E-002,7.1577766751E-002,Pass,Pass,0.2487225544,1.8655823790,Pass,Pass
 Warmup Convergence Information,THERMAL ZONE 8,RunPeriod: RUN PERIOD 1,4.3936703146E-002,3.0949976155E-002,Pass,Pass,0.1008029759,0.7306467046,Pass,Pass
 Warmup Convergence Information,THERMAL ZONE 9,RunPeriod: RUN PERIOD 1,1.5349239272E-002,1.0335377051E-002,Pass,Pass,0.0000000000,0.0000000000,Pass,Pass
! <Program Control Information:Threads/Parallel Sims>, Threading Supported,Maximum Number of Threads, Env Set Threads (OMP_NUM_THREADS), EP Env Set Threads (EP_OMP_NUM_THREADS), IDF Set Threads, Number of Threads Used (Interior Radiant Exchange), Number Nominal Surfaces, Number Parallel Sims
Program Control:Threads/Parallel Sims, No,1, N/A, N/A, N/A, N/A, N/A, N/A
End of Data
